# generated using pymatgen
data_NaCl
_symmetry_space_group_name_H-M   'P 1'
_cell_length_a   6.43136270
_cell_length_b   6.43136270
_cell_length_c   5.44597475
_cell_angle_alpha   90.00000000
_cell_angle_beta   90.00000000
_cell_angle_gamma   90.00000000
_symmetry_Int_Tables_number   1
_chemical_formula_structural   NaCl
_chemical_formula_sum   'Na4 Cl4'
_cell_volume   225.25872857
_cell_formula_units_Z   4
loop_
 _symmetry_equiv_pos_site_id
 _symmetry_equiv_pos_as_xyz
  1  'x, y, z'
loop_
 _atom_site_type_symbol
 _atom_site_label
 _atom_site_symmetry_multiplicity
 _atom_site_fract_x
 _atom_site_fract_y
 _atom_site_fract_z
 _atom_site_occupancy
  Na  Na0  1  0.00121345  0.21355739  0.78981029  1.0
  Na  Na1  1  0.29549454  0.03426741  0.33815976  1.0
  Na  Na2  1  0.77796965  0.89999557  0.25012401  1.0
  Na  Na3  1  0.69105555  0.40595828  0.61664813  1.0
  Cl  Cl4  1  0.12957237  0.05454502  0.51325844  1.0
  Cl  Cl5  1  0.16623425  0.56151860  0.66294584  1.0
  Cl  Cl6  1  0.46331379  0.56887952  0.24978899  1.0
  Cl  Cl7  1  0.72880111  0.76420985  0.86891586  1.0
