# generated using pymatgen
data_NaCl
_symmetry_space_group_name_H-M   'P 1'
_cell_length_a   4.64122267
_cell_length_b   4.64122267
_cell_length_c   5.79112608
_cell_angle_alpha   90.00000000
_cell_angle_beta   90.00000000
_cell_angle_gamma   90.00000000
_symmetry_Int_Tables_number   1
_chemical_formula_structural   NaCl
_chemical_formula_sum   'Na4 Cl4'
_cell_volume   124.74634501
_cell_formula_units_Z   4
loop_
 _symmetry_equiv_pos_site_id
 _symmetry_equiv_pos_as_xyz
  1  'x, y, z'
loop_
 _atom_site_type_symbol
 _atom_site_label
 _atom_site_symmetry_multiplicity
 _atom_site_fract_x
 _atom_site_fract_y
 _atom_site_fract_z
 _atom_site_occupancy
  Na  Na0  1  0.05350066  0.54146731  0.65444710  1.0
  Na  Na1  1  0.20245416  0.17236395  0.27237514  1.0
  Na  Na2  1  0.78517773  0.89236239  0.76839880  1.0
  Na  Na3  1  0.74782262  0.34606124  0.99889363  1.0
  Cl  Cl4  1  0.03129731  0.11678253  0.45533178  1.0
  Cl  Cl5  1  0.36950171  0.47630488  0.81641974  1.0
  Cl  Cl6  1  0.40311360  0.69004036  0.49794518  1.0
  Cl  Cl7  1  0.87994023  0.62600790  0.50253093  1.0
