# generated using pymatgen
data_NaCl
_symmetry_space_group_name_H-M   'P 1'
_cell_length_a   3.19981299
_cell_length_b   26.39590668
_cell_length_c   2.81731919
_cell_angle_alpha   90.00000000
_cell_angle_beta   95.23151264
_cell_angle_gamma   90.00000000
_symmetry_Int_Tables_number   1
_chemical_formula_structural   NaCl
_chemical_formula_sum   'Na4 Cl4'
_cell_volume   236.96508424
_cell_formula_units_Z   4
loop_
 _symmetry_equiv_pos_site_id
 _symmetry_equiv_pos_as_xyz
  1  'x, y, z'
loop_
 _atom_site_type_symbol
 _atom_site_label
 _atom_site_symmetry_multiplicity
 _atom_site_fract_x
 _atom_site_fract_y
 _atom_site_fract_z
 _atom_site_occupancy
  Na  Na0  1  0.00000000  0.39830856  0.00000000  1.0
  Na  Na1  1  0.00000000  0.78237827  0.50000000  1.0
  Na  Na2  1  0.00000000  0.34407871  0.50000000  1.0
  Na  Na3  1  0.00000000  0.10024142  0.50000000  1.0
  Cl  Cl4  1  0.00000000  0.03984894  0.00000000  1.0
  Cl  Cl5  1  0.50000000  0.51420451  0.00000000  1.0
  Cl  Cl6  1  0.77876483  0.56619057  0.76843463  1.0
  Cl  Cl7  1  0.64837626  0.95525175  0.98057820  1.0
