# generated using pymatgen
data_NaCl
_symmetry_space_group_name_H-M   'P 1'
_cell_length_a   3.83645750
_cell_length_b   3.83645750
_cell_length_c   12.19452124
_cell_angle_alpha   90.00000000
_cell_angle_beta   90.00000000
_cell_angle_gamma   90.00000000
_symmetry_Int_Tables_number   1
_chemical_formula_structural   NaCl
_chemical_formula_sum   'Na4 Cl4'
_cell_volume   179.48391641
_cell_formula_units_Z   4
loop_
 _symmetry_equiv_pos_site_id
 _symmetry_equiv_pos_as_xyz
  1  'x, y, z'
loop_
 _atom_site_type_symbol
 _atom_site_label
 _atom_site_symmetry_multiplicity
 _atom_site_fract_x
 _atom_site_fract_y
 _atom_site_fract_z
 _atom_site_occupancy
  Na  Na0  1  0.00000000  0.00000000  0.56424901  1.0
  Na  Na1  1  0.50000000  0.50000000  0.60103647  1.0
  Na  Na2  1  0.00000000  0.00000000  0.06014481  1.0
  Na  Na3  1  0.50000000  0.50000000  0.91348352  1.0
  Cl  Cl4  1  0.14697477  0.64697477  0.45178568  1.0
  Cl  Cl5  1  0.34814846  0.84814846  0.47568973  1.0
  Cl  Cl6  1  0.73067236  0.76932764  0.97479019  1.0
  Cl  Cl7  1  0.73820186  0.76179814  0.14399211  1.0
