# generated using pymatgen
data_NaCl
_symmetry_space_group_name_H-M   'P 1'
_cell_length_a   4.71912683
_cell_length_b   4.71912683
_cell_length_c   12.08582407
_cell_angle_alpha   90.00000000
_cell_angle_beta   90.00000000
_cell_angle_gamma   90.00000000
_symmetry_Int_Tables_number   1
_chemical_formula_structural   NaCl
_chemical_formula_sum   'Na4 Cl4'
_cell_volume   269.15321205
_cell_formula_units_Z   4
loop_
 _symmetry_equiv_pos_site_id
 _symmetry_equiv_pos_as_xyz
  1  'x, y, z'
loop_
 _atom_site_type_symbol
 _atom_site_label
 _atom_site_symmetry_multiplicity
 _atom_site_fract_x
 _atom_site_fract_y
 _atom_site_fract_z
 _atom_site_occupancy
  Na  Na0  1  0.42183220  0.18612880  0.56615603  1.0
  Na  Na1  1  0.95630964  0.14124632  0.18993012  1.0
  Na  Na2  1  0.59832818  0.97052528  0.00348414  1.0
  Na  Na3  1  0.70259546  0.54111151  0.15615037  1.0
  Cl  Cl4  1  0.11244051  0.02040211  0.02118555  1.0
  Cl  Cl5  1  0.18985525  0.48073587  0.75322117  1.0
  Cl  Cl6  1  0.48131544  0.77982231  0.90986382  1.0
  Cl  Cl7  1  0.95994166  0.53877619  0.29353020  1.0
