# generated using pymatgen
data_NaCl
_symmetry_space_group_name_H-M   'P 1'
_cell_length_a   6.34835984
_cell_length_b   6.34835984
_cell_length_c   8.58033553
_cell_angle_alpha   90.00000000
_cell_angle_beta   90.00000000
_cell_angle_gamma   90.00000000
_symmetry_Int_Tables_number   1
_chemical_formula_structural   NaCl
_chemical_formula_sum   'Na4 Cl4'
_cell_volume   345.80187383
_cell_formula_units_Z   4
loop_
 _symmetry_equiv_pos_site_id
 _symmetry_equiv_pos_as_xyz
  1  'x, y, z'
loop_
 _atom_site_type_symbol
 _atom_site_label
 _atom_site_symmetry_multiplicity
 _atom_site_fract_x
 _atom_site_fract_y
 _atom_site_fract_z
 _atom_site_occupancy
  Na  Na0  1  0.07257194  0.00043079  0.62271176  1.0
  Na  Na1  1  0.28001465  0.36003518  0.08411869  1.0
  Na  Na2  1  0.98014542  0.86487964  0.80041550  1.0
  Na  Na3  1  0.84880330  0.31471517  0.17367623  1.0
  Cl  Cl4  1  0.01775571  0.00009892  0.33572278  1.0
  Cl  Cl5  1  0.00018671  0.48223046  0.54895672  1.0
  Cl  Cl6  1  0.37590185  0.41821103  0.60985900  1.0
  Cl  Cl7  1  0.83681764  0.43870742  0.42973655  1.0
