# generated using pymatgen
data_NaCl
_symmetry_space_group_name_H-M   'P 1'
_cell_length_a   4.95235791
_cell_length_b   4.95235791
_cell_length_c   10.40160360
_cell_angle_alpha   90.00000000
_cell_angle_beta   90.00000000
_cell_angle_gamma   90.00000000
_symmetry_Int_Tables_number   1
_chemical_formula_structural   NaCl
_chemical_formula_sum   'Na4 Cl4'
_cell_volume   255.10815789
_cell_formula_units_Z   4
loop_
 _symmetry_equiv_pos_site_id
 _symmetry_equiv_pos_as_xyz
  1  'x, y, z'
loop_
 _atom_site_type_symbol
 _atom_site_label
 _atom_site_symmetry_multiplicity
 _atom_site_fract_x
 _atom_site_fract_y
 _atom_site_fract_z
 _atom_site_occupancy
  Na  Na0  1  0.76071783  0.76071783  0.00000000  1.0
  Na  Na1  1  0.82463660  0.82463660  0.50000000  1.0
  Na  Na2  1  0.00089641  0.99910359  0.75000000  1.0
  Na  Na3  1  0.94178220  0.05821780  0.25000000  1.0
  Cl  Cl4  1  0.47903604  0.47903604  0.00000000  1.0
  Cl  Cl5  1  0.56970357  0.56970357  0.50000000  1.0
  Cl  Cl6  1  0.62406167  0.37593833  0.75000000  1.0
  Cl  Cl7  1  0.23641121  0.76358879  0.25000000  1.0
