# generated using pymatgen
data_NaCl
_symmetry_space_group_name_H-M   'P 1'
_cell_length_a   5.21029206
_cell_length_b   5.21029206
_cell_length_c   2.71589481
_cell_angle_alpha   90.00000000
_cell_angle_beta   90.00000000
_cell_angle_gamma   90.00000000
_symmetry_Int_Tables_number   1
_chemical_formula_structural   NaCl
_chemical_formula_sum   'Na4 Cl4'
_cell_volume   73.72878573
_cell_formula_units_Z   4
loop_
 _symmetry_equiv_pos_site_id
 _symmetry_equiv_pos_as_xyz
  1  'x, y, z'
loop_
 _atom_site_type_symbol
 _atom_site_label
 _atom_site_symmetry_multiplicity
 _atom_site_fract_x
 _atom_site_fract_y
 _atom_site_fract_z
 _atom_site_occupancy
  Na  Na0  1  0.07507717  0.43775672  0.51481713  1.0
  Na  Na1  1  0.72133875  0.16810606  0.37148546  1.0
  Na  Na2  1  0.59311078  0.88246886  0.33568656  1.0
  Na  Na3  1  0.79639032  0.40697095  0.67333455  1.0
  Cl  Cl4  1  0.02214882  0.09725042  0.36530185  1.0
  Cl  Cl5  1  0.34420359  0.39674731  0.68950767  1.0
  Cl  Cl6  1  0.47629416  0.80189601  0.02205006  1.0
  Cl  Cl7  1  0.92254050  0.78986928  0.07671939  1.0
