# generated using pymatgen
data_NaCl
_symmetry_space_group_name_H-M   'P 1'
_cell_length_a   6.05385320
_cell_length_b   13.88269214
_cell_length_c   4.83003331
_cell_angle_alpha   90.00000000
_cell_angle_beta   130.88515451
_cell_angle_gamma   90.00000000
_symmetry_Int_Tables_number   1
_chemical_formula_structural   NaCl
_chemical_formula_sum   'Na4 Cl4'
_cell_volume   306.89567165
_cell_formula_units_Z   4
loop_
 _symmetry_equiv_pos_site_id
 _symmetry_equiv_pos_as_xyz
  1  'x, y, z'
loop_
 _atom_site_type_symbol
 _atom_site_label
 _atom_site_symmetry_multiplicity
 _atom_site_fract_x
 _atom_site_fract_y
 _atom_site_fract_z
 _atom_site_occupancy
  Na  Na0  1  0.07395536  0.19042249  0.67880651  1.0
  Na  Na1  1  0.53631815  0.38462727  0.32845954  1.0
  Na  Na2  1  0.92589476  0.95071754  0.08272945  1.0
  Na  Na3  1  0.62708541  0.24729092  0.37093170  1.0
  Cl  Cl4  1  0.10714242  0.11804583  0.36033575  1.0
  Cl  Cl5  1  0.89041551  0.69164637  0.69780374  1.0
  Cl  Cl6  1  0.76138695  0.27088922  0.90658643  1.0
  Cl  Cl7  1  0.48535661  0.00106132  0.52443893  1.0
