# generated using pymatgen
data_NaCl
_symmetry_space_group_name_H-M   'P 1'
_cell_length_a   6.70231635
_cell_length_b   6.70231635
_cell_length_c   6.70231635
_cell_angle_alpha   90.00000000
_cell_angle_beta   90.00000000
_cell_angle_gamma   90.00000000
_symmetry_Int_Tables_number   1
_chemical_formula_structural   NaCl
_chemical_formula_sum   'Na4 Cl4'
_cell_volume   301.07505071
_cell_formula_units_Z   4
loop_
 _symmetry_equiv_pos_site_id
 _symmetry_equiv_pos_as_xyz
  1  'x, y, z'
loop_
 _atom_site_type_symbol
 _atom_site_label
 _atom_site_symmetry_multiplicity
 _atom_site_fract_x
 _atom_site_fract_y
 _atom_site_fract_z
 _atom_site_occupancy
  Na  Na0  1  0.01809898  0.01809898  0.01809898  1.0
  Na  Na1  1  0.20118950  0.70118950  0.79881050  1.0
  Na  Na2  1  0.75894970  0.74105030  0.25894970  1.0
  Na  Na3  1  0.00175718  0.99824282  0.49824282  1.0
  Cl  Cl4  1  0.14619198  0.14619198  0.14619198  1.0
  Cl  Cl5  1  0.89577152  0.39577152  0.10422848  1.0
  Cl  Cl6  1  0.49659455  0.00340545  0.99659455  1.0
  Cl  Cl7  1  0.72114640  0.27885360  0.77885360  1.0
