# generated using pymatgen
data_NaCl
_symmetry_space_group_name_H-M   'P 1'
_cell_length_a   6.04287129
_cell_length_b   6.04287129
_cell_length_c   6.30848371
_cell_angle_alpha   90.00000000
_cell_angle_beta   90.00000000
_cell_angle_gamma   90.00000000
_symmetry_Int_Tables_number   1
_chemical_formula_structural   NaCl
_chemical_formula_sum   'Na4 Cl4'
_cell_volume   230.36244224
_cell_formula_units_Z   4
loop_
 _symmetry_equiv_pos_site_id
 _symmetry_equiv_pos_as_xyz
  1  'x, y, z'
loop_
 _atom_site_type_symbol
 _atom_site_label
 _atom_site_symmetry_multiplicity
 _atom_site_fract_x
 _atom_site_fract_y
 _atom_site_fract_z
 _atom_site_occupancy
  Na  Na0  1  0.00007470  0.22186837  0.59721305  1.0
  Na  Na1  1  0.31676473  0.32442997  0.02510539  1.0
  Na  Na2  1  0.77293790  0.94951850  0.83763811  1.0
  Na  Na3  1  0.87264836  0.13041351  0.23528080  1.0
  Cl  Cl4  1  0.15803659  0.22522451  0.38744742  1.0
  Cl  Cl5  1  0.21414545  0.36457065  0.69564572  1.0
  Cl  Cl6  1  0.72409535  0.64458160  0.74943707  1.0
  Cl  Cl7  1  0.84033548  0.83560597  0.28228344  1.0
