# generated using pymatgen
data_NaCl
_symmetry_space_group_name_H-M   'P 1'
_cell_length_a   4.60180968
_cell_length_b   4.60180968
_cell_length_c   12.20061213
_cell_angle_alpha   90.00000000
_cell_angle_beta   90.00000000
_cell_angle_gamma   90.00000000
_symmetry_Int_Tables_number   1
_chemical_formula_structural   NaCl
_chemical_formula_sum   'Na4 Cl4'
_cell_volume   258.36812130
_cell_formula_units_Z   4
loop_
 _symmetry_equiv_pos_site_id
 _symmetry_equiv_pos_as_xyz
  1  'x, y, z'
loop_
 _atom_site_type_symbol
 _atom_site_label
 _atom_site_symmetry_multiplicity
 _atom_site_fract_x
 _atom_site_fract_y
 _atom_site_fract_z
 _atom_site_occupancy
  Na  Na0  1  0.63280309  0.13280309  0.92151185  1.0
  Na  Na1  1  0.71874973  0.21874973  0.45584267  1.0
  Na  Na2  1  0.22046134  0.27953866  0.52273923  1.0
  Na  Na3  1  0.01660114  0.48339886  0.22425198  1.0
  Cl  Cl4  1  0.00000000  0.00000000  0.18823253  1.0
  Cl  Cl5  1  0.50000000  0.50000000  0.75747988  1.0
  Cl  Cl6  1  0.50000000  0.00000000  0.58947068  1.0
  Cl  Cl7  1  0.00000000  0.50000000  0.35610382  1.0
