# generated using pymatgen
data_NaCl
_symmetry_space_group_name_H-M   'P 1'
_cell_length_a   6.89584231
_cell_length_b   5.09321302
_cell_length_c   10.32212374
_cell_angle_alpha   90.00000000
_cell_angle_beta   90.00000000
_cell_angle_gamma   90.00000000
_symmetry_Int_Tables_number   1
_chemical_formula_structural   NaCl
_chemical_formula_sum   'Na4 Cl4'
_cell_volume   362.53356638
_cell_formula_units_Z   4
loop_
 _symmetry_equiv_pos_site_id
 _symmetry_equiv_pos_as_xyz
  1  'x, y, z'
loop_
 _atom_site_type_symbol
 _atom_site_label
 _atom_site_symmetry_multiplicity
 _atom_site_fract_x
 _atom_site_fract_y
 _atom_site_fract_z
 _atom_site_occupancy
  Na  Na0  1  0.83316079  0.61394014  0.84215382  1.0
  Na  Na1  1  0.76395780  0.28214059  0.57212664  1.0
  Na  Na2  1  0.85341618  0.97643996  0.36305234  1.0
  Na  Na3  1  0.64315219  0.04981402  0.60486331  1.0
  Cl  Cl4  1  0.24027837  0.40330520  0.13860805  1.0
  Cl  Cl5  1  0.84536977  0.12275889  0.01120691  1.0
  Cl  Cl6  1  0.09688127  0.37452804  0.52359220  1.0
  Cl  Cl7  1  0.17759130  0.11522110  0.55543639  1.0
