# generated using pymatgen
data_NaCl
_symmetry_space_group_name_H-M   'P 1'
_cell_length_a   4.69019883
_cell_length_b   13.50654007
_cell_length_c   2.54207663
_cell_angle_alpha   90.00000000
_cell_angle_beta   83.74418258
_cell_angle_gamma   90.00000000
_symmetry_Int_Tables_number   1
_chemical_formula_structural   NaCl
_chemical_formula_sum   'Na4 Cl4'
_cell_volume   160.07745488
_cell_formula_units_Z   4
loop_
 _symmetry_equiv_pos_site_id
 _symmetry_equiv_pos_as_xyz
  1  'x, y, z'
loop_
 _atom_site_type_symbol
 _atom_site_label
 _atom_site_symmetry_multiplicity
 _atom_site_fract_x
 _atom_site_fract_y
 _atom_site_fract_z
 _atom_site_occupancy
  Na  Na0  1  0.01887794  0.28645831  0.76932258  1.0
  Na  Na1  1  0.79038320  0.05981711  0.37414379  1.0
  Na  Na2  1  0.44643402  0.41375719  0.25826094  1.0
  Na  Na3  1  0.35475673  0.54517217  0.17145066  1.0
  Cl  Cl4  1  0.27141700  0.25294749  0.31554045  1.0
  Cl  Cl5  1  0.99117519  0.70956093  0.72797782  1.0
  Cl  Cl6  1  0.26492016  0.08743170  0.69488530  1.0
  Cl  Cl7  1  0.10980717  0.63611125  0.51675457  1.0
