# generated using pymatgen
data_NaCl
_symmetry_space_group_name_H-M   'P 1'
_cell_length_a   4.48549741
_cell_length_b   4.48549741
_cell_length_c   4.14308755
_cell_angle_alpha   90.00000000
_cell_angle_beta   90.00000000
_cell_angle_gamma   90.00000000
_symmetry_Int_Tables_number   1
_chemical_formula_structural   NaCl
_chemical_formula_sum   'Na4 Cl4'
_cell_volume   83.35762478
_cell_formula_units_Z   4
loop_
 _symmetry_equiv_pos_site_id
 _symmetry_equiv_pos_as_xyz
  1  'x, y, z'
loop_
 _atom_site_type_symbol
 _atom_site_label
 _atom_site_symmetry_multiplicity
 _atom_site_fract_x
 _atom_site_fract_y
 _atom_site_fract_z
 _atom_site_occupancy
  Na  Na0  1  0.00119793  0.37817702  0.58132353  1.0
  Na  Na1  1  0.82661024  0.18065635  0.34431196  1.0
  Na  Na2  1  0.64723782  0.93293908  0.81257298  1.0
  Na  Na3  1  0.67852900  0.43230032  0.14147392  1.0
  Cl  Cl4  1  0.05845805  0.05841932  0.35893734  1.0
  Cl  Cl5  1  0.23916167  0.44022698  0.70385629  1.0
  Cl  Cl6  1  0.42158239  0.87361834  0.43669226  1.0
  Cl  Cl7  1  0.94776154  0.76200474  0.45995239  1.0
