# generated using pymatgen
data_NaCl
_symmetry_space_group_name_H-M   'P 1'
_cell_length_a   5.40138621
_cell_length_b   5.43831705
_cell_length_c   8.88626399
_cell_angle_alpha   90.00000000
_cell_angle_beta   90.00000000
_cell_angle_gamma   90.00000000
_symmetry_Int_Tables_number   1
_chemical_formula_structural   NaCl
_chemical_formula_sum   'Na4 Cl4'
_cell_volume   261.02912365
_cell_formula_units_Z   4
loop_
 _symmetry_equiv_pos_site_id
 _symmetry_equiv_pos_as_xyz
  1  'x, y, z'
loop_
 _atom_site_type_symbol
 _atom_site_label
 _atom_site_symmetry_multiplicity
 _atom_site_fract_x
 _atom_site_fract_y
 _atom_site_fract_z
 _atom_site_occupancy
  Na  Na0  1  0.82679762  0.43939956  0.62959308  1.0
  Na  Na1  1  0.59450027  0.25752929  0.36057531  1.0
  Na  Na2  1  0.75227366  0.03039781  0.87089575  1.0
  Na  Na3  1  0.48065078  0.85902014  0.58841080  1.0
  Cl  Cl4  1  0.00000000  0.00000000  0.05803035  1.0
  Cl  Cl5  1  0.50000000  0.50000000  0.50440270  1.0
  Cl  Cl6  1  0.00000000  0.00000000  0.16540247  1.0
  Cl  Cl7  1  0.50000000  0.50000000  0.70805523  1.0
