# generated using pymatgen
data_NaCl
_symmetry_space_group_name_H-M   'P 1'
_cell_length_a   4.84312769
_cell_length_b   4.84312769
_cell_length_c   4.03927372
_cell_angle_alpha   90.00000000
_cell_angle_beta   90.00000000
_cell_angle_gamma   90.00000000
_symmetry_Int_Tables_number   1
_chemical_formula_structural   NaCl
_chemical_formula_sum   'Na4 Cl4'
_cell_volume   94.74474318
_cell_formula_units_Z   4
loop_
 _symmetry_equiv_pos_site_id
 _symmetry_equiv_pos_as_xyz
  1  'x, y, z'
loop_
 _atom_site_type_symbol
 _atom_site_label
 _atom_site_symmetry_multiplicity
 _atom_site_fract_x
 _atom_site_fract_y
 _atom_site_fract_z
 _atom_site_occupancy
  Na  Na0  1  0.58941639  0.21861814  0.55741774  1.0
  Na  Na1  1  0.11512377  0.00178982  0.18586636  1.0
  Na  Na2  1  0.57456611  0.96726821  0.89638112  1.0
  Na  Na3  1  0.64627391  0.29700619  0.14515236  1.0
  Cl  Cl4  1  0.23940225  0.33736192  0.45318342  1.0
  Cl  Cl5  1  0.08673058  0.38316099  0.61736534  1.0
  Cl  Cl6  1  0.55741297  0.52596657  0.71112984  1.0
  Cl  Cl7  1  0.87938492  0.67290559  0.30374028  1.0
