# generated using pymatgen
data_NaCl
_symmetry_space_group_name_H-M   'P 1'
_cell_length_a   6.19256447
_cell_length_b   12.76853166
_cell_length_c   4.26349114
_cell_angle_alpha   90.00000000
_cell_angle_beta   90.00000000
_cell_angle_gamma   90.00000000
_symmetry_Int_Tables_number   1
_chemical_formula_structural   NaCl
_chemical_formula_sum   'Na4 Cl4'
_cell_volume   337.11405468
_cell_formula_units_Z   4
loop_
 _symmetry_equiv_pos_site_id
 _symmetry_equiv_pos_as_xyz
  1  'x, y, z'
loop_
 _atom_site_type_symbol
 _atom_site_label
 _atom_site_symmetry_multiplicity
 _atom_site_fract_x
 _atom_site_fract_y
 _atom_site_fract_z
 _atom_site_occupancy
  Na  Na0  1  0.08813154  0.00432270  0.05818200  1.0
  Na  Na1  1  0.51812606  0.00069151  0.10005416  1.0
  Na  Na2  1  0.43573116  0.82915878  0.03273823  1.0
  Na  Na3  1  0.90703922  0.61269676  0.41021931  1.0
  Cl  Cl4  1  0.11581628  0.11384623  0.33900021  1.0
  Cl  Cl5  1  0.05650289  0.37866326  0.56378265  1.0
  Cl  Cl6  1  0.26902717  0.69976734  0.88173932  1.0
  Cl  Cl7  1  0.12810284  0.04567830  0.66651158  1.0
