# generated using pymatgen
data_NaCl
_symmetry_space_group_name_H-M   'P 1'
_cell_length_a   6.83796597
_cell_length_b   6.83796597
_cell_length_c   6.83796597
_cell_angle_alpha   90.00000000
_cell_angle_beta   90.00000000
_cell_angle_gamma   90.00000000
_symmetry_Int_Tables_number   1
_chemical_formula_structural   NaCl
_chemical_formula_sum   'Na4 Cl4'
_cell_volume   319.72809895
_cell_formula_units_Z   4
loop_
 _symmetry_equiv_pos_site_id
 _symmetry_equiv_pos_as_xyz
  1  'x, y, z'
loop_
 _atom_site_type_symbol
 _atom_site_label
 _atom_site_symmetry_multiplicity
 _atom_site_fract_x
 _atom_site_fract_y
 _atom_site_fract_z
 _atom_site_occupancy
  Na  Na0  1  0.05266302  0.05266302  0.05266302  1.0
  Na  Na1  1  0.76229841  0.26229841  0.23770159  1.0
  Na  Na2  1  0.03981700  0.46018300  0.53981700  1.0
  Na  Na3  1  0.28761387  0.71238613  0.21238613  1.0
  Cl  Cl4  1  0.22421268  0.22421268  0.22421268  1.0
  Cl  Cl5  1  0.06992671  0.56992671  0.93007329  1.0
  Cl  Cl6  1  0.49627819  0.00372181  0.99627819  1.0
  Cl  Cl7  1  0.98931320  0.01068680  0.51068680  1.0
