# generated using pymatgen
data_NaCl
_symmetry_space_group_name_H-M   'P 1'
_cell_length_a   2.74473504
_cell_length_b   8.83823467
_cell_length_c   14.28855002
_cell_angle_alpha   90.00000000
_cell_angle_beta   57.46062369
_cell_angle_gamma   90.00000000
_symmetry_Int_Tables_number   1
_chemical_formula_structural   NaCl
_chemical_formula_sum   'Na4 Cl4'
_cell_volume   292.20861632
_cell_formula_units_Z   4
loop_
 _symmetry_equiv_pos_site_id
 _symmetry_equiv_pos_as_xyz
  1  'x, y, z'
loop_
 _atom_site_type_symbol
 _atom_site_label
 _atom_site_symmetry_multiplicity
 _atom_site_fract_x
 _atom_site_fract_y
 _atom_site_fract_z
 _atom_site_occupancy
  Na  Na0  1  0.81864892  0.00000000  0.88439010  1.0
  Na  Na1  1  0.11838520  0.50000000  0.38371847  1.0
  Na  Na2  1  0.62383749  0.54032927  0.28556897  1.0
  Na  Na3  1  0.56026601  0.73840489  0.28753908  1.0
  Cl  Cl4  1  0.32003142  0.00000000  0.00002101  1.0
  Cl  Cl5  1  0.13245965  0.00000000  0.57107630  1.0
  Cl  Cl6  1  0.79213735  0.20434003  0.74249079  1.0
  Cl  Cl7  1  0.29263472  0.62296908  0.19941961  1.0
