# generated using pymatgen
data_NaCl
_symmetry_space_group_name_H-M   'P 1'
_cell_length_a   6.29945559
_cell_length_b   6.29945559
_cell_length_c   4.37682802
_cell_angle_alpha   90.00000000
_cell_angle_beta   90.00000000
_cell_angle_gamma   90.00000000
_symmetry_Int_Tables_number   1
_chemical_formula_structural   NaCl
_chemical_formula_sum   'Na4 Cl4'
_cell_volume   173.68628227
_cell_formula_units_Z   4
loop_
 _symmetry_equiv_pos_site_id
 _symmetry_equiv_pos_as_xyz
  1  'x, y, z'
loop_
 _atom_site_type_symbol
 _atom_site_label
 _atom_site_symmetry_multiplicity
 _atom_site_fract_x
 _atom_site_fract_y
 _atom_site_fract_z
 _atom_site_occupancy
  Na  Na0  1  0.07532348  0.07532348  0.00000000  1.0
  Na  Na1  1  0.31713928  0.31713928  0.50000000  1.0
  Na  Na2  1  0.53781751  0.46218249  0.25000000  1.0
  Na  Na3  1  0.22492523  0.77507477  0.75000000  1.0
  Cl  Cl4  1  0.22396777  0.22396777  0.00000000  1.0
  Cl  Cl5  1  0.62214206  0.62214206  0.50000000  1.0
  Cl  Cl6  1  0.91780217  0.08219783  0.25000000  1.0
  Cl  Cl7  1  0.95412086  0.04587914  0.75000000  1.0
