# generated using pymatgen
data_NaCl
_symmetry_space_group_name_H-M   'P 1'
_cell_length_a   6.45636936
_cell_length_b   6.45636936
_cell_length_c   6.45636936
_cell_angle_alpha   90.00000000
_cell_angle_beta   90.00000000
_cell_angle_gamma   90.00000000
_symmetry_Int_Tables_number   1
_chemical_formula_structural   NaCl
_chemical_formula_sum   'Na4 Cl4'
_cell_volume   269.13185416
_cell_formula_units_Z   4
loop_
 _symmetry_equiv_pos_site_id
 _symmetry_equiv_pos_as_xyz
  1  'x, y, z'
loop_
 _atom_site_type_symbol
 _atom_site_label
 _atom_site_symmetry_multiplicity
 _atom_site_fract_x
 _atom_site_fract_y
 _atom_site_fract_z
 _atom_site_occupancy
  Na  Na0  1  0.56136197  0.56136197  0.56136197  1.0
  Na  Na1  1  0.08484535  0.58484535  0.91515465  1.0
  Na  Na2  1  0.30003479  0.19996521  0.80003479  1.0
  Na  Na3  1  0.67310852  0.32689148  0.82689148  1.0
  Cl  Cl4  1  0.29004900  0.29004900  0.29004900  1.0
  Cl  Cl5  1  0.51734206  0.01734206  0.48265794  1.0
  Cl  Cl6  1  0.44164680  0.05835320  0.94164680  1.0
  Cl  Cl7  1  0.98591073  0.01408927  0.51408927  1.0
