# generated using pymatgen
data_NaCl
_symmetry_space_group_name_H-M   'P 1'
_cell_length_a   6.09100624
_cell_length_b   6.09100624
_cell_length_c   10.77927762
_cell_angle_alpha   90.00000000
_cell_angle_beta   90.00000000
_cell_angle_gamma   90.00000000
_symmetry_Int_Tables_number   1
_chemical_formula_structural   NaCl
_chemical_formula_sum   'Na4 Cl4'
_cell_volume   399.91504807
_cell_formula_units_Z   4
loop_
 _symmetry_equiv_pos_site_id
 _symmetry_equiv_pos_as_xyz
  1  'x, y, z'
loop_
 _atom_site_type_symbol
 _atom_site_label
 _atom_site_symmetry_multiplicity
 _atom_site_fract_x
 _atom_site_fract_y
 _atom_site_fract_z
 _atom_site_occupancy
  Na  Na0  1  0.59434248  0.50000000  0.24557911  1.0
  Na  Na1  1  0.76443565  0.50000000  0.60564468  1.0
  Na  Na2  1  0.50000000  0.09547083  0.17777749  1.0
  Na  Na3  1  0.50000000  0.64295385  0.06898176  1.0
  Cl  Cl4  1  0.00000000  0.00000000  0.96871749  1.0
  Cl  Cl5  1  0.00000000  0.00000000  0.36467372  1.0
  Cl  Cl6  1  0.50000000  0.50000000  0.34117336  1.0
  Cl  Cl7  1  0.50000000  0.50000000  0.86413299  1.0
