# generated using pymatgen
data_NaCl
_symmetry_space_group_name_H-M   'P 1'
_cell_length_a   5.06634365
_cell_length_b   15.70178878
_cell_length_c   3.25475707
_cell_angle_alpha   90.00000000
_cell_angle_beta   68.67595539
_cell_angle_gamma   90.00000000
_symmetry_Int_Tables_number   1
_chemical_formula_structural   NaCl
_chemical_formula_sum   'Na4 Cl4'
_cell_volume   241.19219989
_cell_formula_units_Z   4
loop_
 _symmetry_equiv_pos_site_id
 _symmetry_equiv_pos_as_xyz
  1  'x, y, z'
loop_
 _atom_site_type_symbol
 _atom_site_label
 _atom_site_symmetry_multiplicity
 _atom_site_fract_x
 _atom_site_fract_y
 _atom_site_fract_z
 _atom_site_occupancy
  Na  Na0  1  0.00000000  0.74463138  0.25000000  1.0
  Na  Na1  1  0.00000000  0.61467565  0.75000000  1.0
  Na  Na2  1  0.50000000  0.13073174  0.25000000  1.0
  Na  Na3  1  0.50000000  0.68206935  0.75000000  1.0
  Cl  Cl4  1  0.00000000  0.53076735  0.25000000  1.0
  Cl  Cl5  1  0.00000000  0.37703746  0.75000000  1.0
  Cl  Cl6  1  0.50000000  0.73113611  0.25000000  1.0
  Cl  Cl7  1  0.50000000  0.95452139  0.75000000  1.0
