# generated using pymatgen
data_NaCl
_symmetry_space_group_name_H-M   'P 1'
_cell_length_a   6.86759910
_cell_length_b   6.86759910
_cell_length_c   6.86759910
_cell_angle_alpha   90.00000000
_cell_angle_beta   90.00000000
_cell_angle_gamma   90.00000000
_symmetry_Int_Tables_number   1
_chemical_formula_structural   NaCl
_chemical_formula_sum   'Na4 Cl4'
_cell_volume   323.90287668
_cell_formula_units_Z   4
loop_
 _symmetry_equiv_pos_site_id
 _symmetry_equiv_pos_as_xyz
  1  'x, y, z'
loop_
 _atom_site_type_symbol
 _atom_site_label
 _atom_site_symmetry_multiplicity
 _atom_site_fract_x
 _atom_site_fract_y
 _atom_site_fract_z
 _atom_site_occupancy
  Na  Na0  1  0.56476295  0.56476295  0.56476295  1.0
  Na  Na1  1  0.23605991  0.73605991  0.76394009  1.0
  Na  Na2  1  0.81722907  0.68277093  0.31722907  1.0
  Na  Na3  1  0.78157582  0.21842418  0.71842418  1.0
  Cl  Cl4  1  0.34593728  0.34593728  0.34593728  1.0
  Cl  Cl5  1  0.52478748  0.02478748  0.47521252  1.0
  Cl  Cl6  1  0.19705378  0.30294622  0.69705378  1.0
  Cl  Cl7  1  0.50034971  0.49965029  0.99965029  1.0
