# generated using pymatgen
data_NaCl
_symmetry_space_group_name_H-M   'P 1'
_cell_length_a   4.68380917
_cell_length_b   4.68380917
_cell_length_c   10.17945431
_cell_angle_alpha   90.00000000
_cell_angle_beta   90.00000000
_cell_angle_gamma   90.00000000
_symmetry_Int_Tables_number   1
_chemical_formula_structural   NaCl
_chemical_formula_sum   'Na4 Cl4'
_cell_volume   223.31756433
_cell_formula_units_Z   4
loop_
 _symmetry_equiv_pos_site_id
 _symmetry_equiv_pos_as_xyz
  1  'x, y, z'
loop_
 _atom_site_type_symbol
 _atom_site_label
 _atom_site_symmetry_multiplicity
 _atom_site_fract_x
 _atom_site_fract_y
 _atom_site_fract_z
 _atom_site_occupancy
  Na  Na0  1  0.58146012  0.58146012  0.22114024  1.0
  Na  Na1  1  0.78367432  0.78367432  0.58878761  1.0
  Na  Na2  1  0.84430060  0.15569940  0.65565562  1.0
  Na  Na3  1  0.31827562  0.68172438  0.53013176  1.0
  Cl  Cl4  1  0.47342384  0.47342384  0.99929616  1.0
  Cl  Cl5  1  0.07286776  0.07286776  0.45335468  1.0
  Cl  Cl6  1  0.77788534  0.22211466  0.82116509  1.0
  Cl  Cl7  1  0.05701675  0.94298325  0.30362540  1.0
