# generated using pymatgen
data_NaCl
_symmetry_space_group_name_H-M   'P 1'
_cell_length_a   4.62363398
_cell_length_b   4.62363398
_cell_length_c   10.05499965
_cell_angle_alpha   90.00000000
_cell_angle_beta   90.00000000
_cell_angle_gamma   90.00000000
_symmetry_Int_Tables_number   1
_chemical_formula_structural   NaCl
_chemical_formula_sum   'Na4 Cl4'
_cell_volume   214.95569384
_cell_formula_units_Z   4
loop_
 _symmetry_equiv_pos_site_id
 _symmetry_equiv_pos_as_xyz
  1  'x, y, z'
loop_
 _atom_site_type_symbol
 _atom_site_label
 _atom_site_symmetry_multiplicity
 _atom_site_fract_x
 _atom_site_fract_y
 _atom_site_fract_z
 _atom_site_occupancy
  Na  Na0  1  0.58918905  0.08918905  0.25071987  1.0
  Na  Na1  1  0.74933273  0.24933273  0.65568971  1.0
  Na  Na2  1  0.31243535  0.18756465  0.14206451  1.0
  Na  Na3  1  0.77967089  0.72032911  0.04089398  1.0
  Cl  Cl4  1  0.50000000  0.00000000  0.98200344  1.0
  Cl  Cl5  1  0.00000000  0.50000000  0.43296009  1.0
  Cl  Cl6  1  0.50000000  0.00000000  0.37345792  1.0
  Cl  Cl7  1  0.00000000  0.50000000  0.83557224  1.0
