# generated using pymatgen
data_NaCl
_symmetry_space_group_name_H-M   'P 1'
_cell_length_a   6.20012187
_cell_length_b   6.20012187
_cell_length_c   10.03112980
_cell_angle_alpha   90.00000000
_cell_angle_beta   90.00000000
_cell_angle_gamma   90.00000000
_symmetry_Int_Tables_number   1
_chemical_formula_structural   NaCl
_chemical_formula_sum   'Na4 Cl4'
_cell_volume   385.61178858
_cell_formula_units_Z   4
loop_
 _symmetry_equiv_pos_site_id
 _symmetry_equiv_pos_as_xyz
  1  'x, y, z'
loop_
 _atom_site_type_symbol
 _atom_site_label
 _atom_site_symmetry_multiplicity
 _atom_site_fract_x
 _atom_site_fract_y
 _atom_site_fract_z
 _atom_site_occupancy
  Na  Na0  1  0.51177188  0.73528251  0.40903817  1.0
  Na  Na1  1  0.71453071  0.64783878  0.15608225  1.0
  Na  Na2  1  0.26312814  0.18212044  0.45636277  1.0
  Na  Na3  1  0.04900865  0.69210340  0.02005205  1.0
  Cl  Cl4  1  0.34811063  0.70450182  0.52505001  1.0
  Cl  Cl5  1  0.22194648  0.28058379  0.91608549  1.0
  Cl  Cl6  1  0.42876306  0.77942334  0.59685027  1.0
  Cl  Cl7  1  0.58506385  0.93221392  0.57705421  1.0
