# generated using pymatgen
data_NaCl
_symmetry_space_group_name_H-M   'P 1'
_cell_length_a   5.55990252
_cell_length_b   5.55990252
_cell_length_c   9.80990292
_cell_angle_alpha   90.00000000
_cell_angle_beta   90.00000000
_cell_angle_gamma   90.00000000
_symmetry_Int_Tables_number   1
_chemical_formula_structural   NaCl
_chemical_formula_sum   'Na4 Cl4'
_cell_volume   303.24878129
_cell_formula_units_Z   4
loop_
 _symmetry_equiv_pos_site_id
 _symmetry_equiv_pos_as_xyz
  1  'x, y, z'
loop_
 _atom_site_type_symbol
 _atom_site_label
 _atom_site_symmetry_multiplicity
 _atom_site_fract_x
 _atom_site_fract_y
 _atom_site_fract_z
 _atom_site_occupancy
  Na  Na0  1  0.29458599  0.22900447  0.29297172  1.0
  Na  Na1  1  0.73133506  0.54108222  0.16538816  1.0
  Na  Na2  1  0.25143625  0.12162756  0.00402367  1.0
  Na  Na3  1  0.93319966  0.75578340  0.48126872  1.0
  Cl  Cl4  1  0.42517243  0.64603772  0.53592918  1.0
  Cl  Cl5  1  0.05002026  0.38645430  0.11949238  1.0
  Cl  Cl6  1  0.68900730  0.36968422  0.27281722  1.0
  Cl  Cl7  1  0.50966961  0.95488112  0.70272788  1.0
