# generated using pymatgen
data_NaCl
_symmetry_space_group_name_H-M   'P 1'
_cell_length_a   5.95719668
_cell_length_b   5.95719668
_cell_length_c   5.95719668
_cell_angle_alpha   90.00000000
_cell_angle_beta   90.00000000
_cell_angle_gamma   90.00000000
_symmetry_Int_Tables_number   1
_chemical_formula_structural   NaCl
_chemical_formula_sum   'Na4 Cl4'
_cell_volume   211.41014125
_cell_formula_units_Z   4
loop_
 _symmetry_equiv_pos_site_id
 _symmetry_equiv_pos_as_xyz
  1  'x, y, z'
loop_
 _atom_site_type_symbol
 _atom_site_label
 _atom_site_symmetry_multiplicity
 _atom_site_fract_x
 _atom_site_fract_y
 _atom_site_fract_z
 _atom_site_occupancy
  Na  Na0  1  0.61682825  0.61682825  0.61682825  1.0
  Na  Na1  1  0.99981121  0.49981121  0.00018879  1.0
  Na  Na2  1  0.55179296  0.94820704  0.05179296  1.0
  Na  Na3  1  0.62772958  0.37227042  0.87227042  1.0
  Cl  Cl4  1  0.38303611  0.38303611  0.38303611  1.0
  Cl  Cl5  1  0.71245608  0.21245608  0.28754392  1.0
  Cl  Cl6  1  0.20380709  0.29619291  0.70380709  1.0
  Cl  Cl7  1  0.75044025  0.24955975  0.74955975  1.0
