# generated using pymatgen
data_NaCl
_symmetry_space_group_name_H-M   'P 1'
_cell_length_a   6.35143125
_cell_length_b   6.35143125
_cell_length_c   9.57146433
_cell_angle_alpha   90.00000000
_cell_angle_beta   90.00000000
_cell_angle_gamma   90.00000000
_symmetry_Int_Tables_number   1
_chemical_formula_structural   NaCl
_chemical_formula_sum   'Na4 Cl4'
_cell_volume   386.11936936
_cell_formula_units_Z   4
loop_
 _symmetry_equiv_pos_site_id
 _symmetry_equiv_pos_as_xyz
  1  'x, y, z'
loop_
 _atom_site_type_symbol
 _atom_site_label
 _atom_site_symmetry_multiplicity
 _atom_site_fract_x
 _atom_site_fract_y
 _atom_site_fract_z
 _atom_site_occupancy
  Na  Na0  1  0.64921311  0.14921311  0.50000000  1.0
  Na  Na1  1  0.83247113  0.33247113  0.50000000  1.0
  Na  Na2  1  0.67946151  0.82053849  0.50000000  1.0
  Na  Na3  1  0.18671999  0.31328001  0.50000000  1.0
  Cl  Cl4  1  0.00000000  0.00000000  0.93411504  1.0
  Cl  Cl5  1  0.00000000  0.00000000  0.52275750  1.0
  Cl  Cl6  1  0.50000000  0.50000000  0.31326171  1.0
  Cl  Cl7  1  0.50000000  0.50000000  0.17188213  1.0
