# generated using pymatgen
data_NaCl
_symmetry_space_group_name_H-M   'P 1'
_cell_length_a   5.46368173
_cell_length_b   5.46368173
_cell_length_c   10.07560885
_cell_angle_alpha   90.00000000
_cell_angle_beta   90.00000000
_cell_angle_gamma   90.00000000
_symmetry_Int_Tables_number   1
_chemical_formula_structural   NaCl
_chemical_formula_sum   'Na4 Cl4'
_cell_volume   300.77524210
_cell_formula_units_Z   4
loop_
 _symmetry_equiv_pos_site_id
 _symmetry_equiv_pos_as_xyz
  1  'x, y, z'
loop_
 _atom_site_type_symbol
 _atom_site_label
 _atom_site_symmetry_multiplicity
 _atom_site_fract_x
 _atom_site_fract_y
 _atom_site_fract_z
 _atom_site_occupancy
  Na  Na0  1  0.49251858  0.70901866  0.23145081  1.0
  Na  Na1  1  0.70935063  0.57236536  0.08131755  1.0
  Na  Na2  1  0.21264769  0.20489508  0.01412884  1.0
  Na  Na3  1  0.10411986  0.69574060  0.53327479  1.0
  Cl  Cl4  1  0.40927071  0.60954688  0.68674092  1.0
  Cl  Cl5  1  0.58301052  0.28919273  0.87915094  1.0
  Cl  Cl6  1  0.76833745  0.47680062  0.27295639  1.0
  Cl  Cl7  1  0.49132245  0.96000297  0.44138271  1.0
