# generated using pymatgen
data_NaCl
_symmetry_space_group_name_H-M   'P 1'
_cell_length_a   5.92323628
_cell_length_b   5.92323628
_cell_length_c   10.47449307
_cell_angle_alpha   90.00000000
_cell_angle_beta   90.00000000
_cell_angle_gamma   120.00000000
_symmetry_Int_Tables_number   1
_chemical_formula_structural   NaCl
_chemical_formula_sum   'Na4 Cl4'
_cell_volume   318.25978112
_cell_formula_units_Z   4
loop_
 _symmetry_equiv_pos_site_id
 _symmetry_equiv_pos_as_xyz
  1  'x, y, z'
loop_
 _atom_site_type_symbol
 _atom_site_label
 _atom_site_symmetry_multiplicity
 _atom_site_fract_x
 _atom_site_fract_y
 _atom_site_fract_z
 _atom_site_occupancy
  Na  Na0  1  0.33333333  0.66666667  0.12854769  1.0
  Na  Na1  1  0.35680601  0.36207521  0.52446671  1.0
  Na  Na2  1  0.21505876  0.39397336  0.18100353  1.0
  Na  Na3  1  0.60737690  0.68558950  0.15888424  1.0
  Cl  Cl4  1  0.66666667  0.33333333  0.91948006  1.0
  Cl  Cl5  1  0.98271307  0.66180900  0.39310080  1.0
  Cl  Cl6  1  0.73832831  0.92718477  0.23951658  1.0
  Cl  Cl7  1  0.87348202  0.36583614  0.83202862  1.0
