# generated using pymatgen
data_NaCl
_symmetry_space_group_name_H-M   'P 1'
_cell_length_a   3.22214547
_cell_length_b   15.52917763
_cell_length_c   8.06406538
_cell_angle_alpha   90.00000000
_cell_angle_beta   78.63033611
_cell_angle_gamma   90.00000000
_symmetry_Int_Tables_number   1
_chemical_formula_structural   NaCl
_chemical_formula_sum   'Na4 Cl4'
_cell_volume   395.58532756
_cell_formula_units_Z   4
loop_
 _symmetry_equiv_pos_site_id
 _symmetry_equiv_pos_as_xyz
  1  'x, y, z'
loop_
 _atom_site_type_symbol
 _atom_site_label
 _atom_site_symmetry_multiplicity
 _atom_site_fract_x
 _atom_site_fract_y
 _atom_site_fract_z
 _atom_site_occupancy
  Na  Na0  1  0.00000000  0.64712436  0.00000000  1.0
  Na  Na1  1  0.50000000  0.31226921  0.50000000  1.0
  Na  Na2  1  0.18382951  0.72068305  0.18313789  1.0
  Na  Na3  1  0.69662116  0.90997841  0.99857648  1.0
  Cl  Cl4  1  0.00000000  0.74661338  0.00000000  1.0
  Cl  Cl5  1  0.50000000  0.71063281  0.00000000  1.0
  Cl  Cl6  1  0.50000000  0.15008694  0.00000000  1.0
  Cl  Cl7  1  0.50000000  0.50592842  0.50000000  1.0
