# generated using pymatgen
data_NaCl
_symmetry_space_group_name_H-M   'P 1'
_cell_length_a   7.91969033
_cell_length_b   7.91969033
_cell_length_c   7.13741249
_cell_angle_alpha   90.00000000
_cell_angle_beta   90.00000000
_cell_angle_gamma   120.00000000
_symmetry_Int_Tables_number   1
_chemical_formula_structural   NaCl
_chemical_formula_sum   'Na4 Cl4'
_cell_volume   387.69288346
_cell_formula_units_Z   4
loop_
 _symmetry_equiv_pos_site_id
 _symmetry_equiv_pos_as_xyz
  1  'x, y, z'
loop_
 _atom_site_type_symbol
 _atom_site_label
 _atom_site_symmetry_multiplicity
 _atom_site_fract_x
 _atom_site_fract_y
 _atom_site_fract_z
 _atom_site_occupancy
  Na  Na0  1  0.66666667  0.33333333  0.30448867  1.0
  Na  Na1  1  0.16724229  0.40397553  0.62727236  1.0
  Na  Na2  1  0.20176291  0.37726910  0.26322338  1.0
  Na  Na3  1  0.74885421  0.74921734  0.02525251  1.0
  Cl  Cl4  1  0.00000000  0.00000000  0.99888653  1.0
  Cl  Cl5  1  0.00000000  0.00000000  0.49628080  1.0
  Cl  Cl6  1  0.33333333  0.66666667  0.23974926  1.0
  Cl  Cl7  1  0.66666667  0.33333333  0.83838398  1.0
