# generated using pymatgen
data_NaCl
_symmetry_space_group_name_H-M   'P 1'
_cell_length_a   4.57084551
_cell_length_b   4.57084551
_cell_length_c   16.05586160
_cell_angle_alpha   90.00000000
_cell_angle_beta   90.00000000
_cell_angle_gamma   90.00000000
_symmetry_Int_Tables_number   1
_chemical_formula_structural   NaCl
_chemical_formula_sum   'Na4 Cl4'
_cell_volume   335.44915449
_cell_formula_units_Z   4
loop_
 _symmetry_equiv_pos_site_id
 _symmetry_equiv_pos_as_xyz
  1  'x, y, z'
loop_
 _atom_site_type_symbol
 _atom_site_label
 _atom_site_symmetry_multiplicity
 _atom_site_fract_x
 _atom_site_fract_y
 _atom_site_fract_z
 _atom_site_occupancy
  Na  Na0  1  0.38890368  0.89334757  0.38785938  1.0
  Na  Na1  1  0.81060142  0.59573991  0.14425144  1.0
  Na  Na2  1  0.09828965  0.13755726  0.62223309  1.0
  Na  Na3  1  0.04111159  0.91898675  0.84470471  1.0
  Cl  Cl4  1  0.15590691  0.99943176  0.49942846  1.0
  Cl  Cl5  1  0.39515578  0.20358390  0.79217036  1.0
  Cl  Cl6  1  0.61667123  0.77121478  0.20853284  1.0
  Cl  Cl7  1  0.65036733  0.43678938  0.20096980  1.0
