# generated using pymatgen
data_NaCl
_symmetry_space_group_name_H-M   'P 1'
_cell_length_a   3.51499336
_cell_length_b   8.48747787
_cell_length_c   9.22666226
_cell_angle_alpha   90.00000000
_cell_angle_beta   122.62514202
_cell_angle_gamma   90.00000000
_symmetry_Int_Tables_number   1
_chemical_formula_structural   NaCl
_chemical_formula_sum   'Na4 Cl4'
_cell_volume   231.83084718
_cell_formula_units_Z   4
loop_
 _symmetry_equiv_pos_site_id
 _symmetry_equiv_pos_as_xyz
  1  'x, y, z'
loop_
 _atom_site_type_symbol
 _atom_site_label
 _atom_site_symmetry_multiplicity
 _atom_site_fract_x
 _atom_site_fract_y
 _atom_site_fract_z
 _atom_site_occupancy
  Na  Na0  1  0.76256066  0.69091563  0.23595442  1.0
  Na  Na1  1  0.15080707  0.00275283  0.72494187  1.0
  Na  Na2  1  0.46402666  0.37882208  0.05637619  1.0
  Na  Na3  1  0.07964212  0.78895993  0.73869127  1.0
  Cl  Cl4  1  0.38820326  0.15557501  0.78389692  1.0
  Cl  Cl5  1  0.78837195  0.18691577  0.06549340  1.0
  Cl  Cl6  1  0.72633508  0.07326557  0.67729594  1.0
  Cl  Cl7  1  0.38579181  0.18441480  0.97951039  1.0
