# generated using pymatgen
data_NaCl
_symmetry_space_group_name_H-M   'P 1'
_cell_length_a   2.57476090
_cell_length_b   6.78236680
_cell_length_c   17.20608819
_cell_angle_alpha   90.00000000
_cell_angle_beta   125.02375183
_cell_angle_gamma   90.00000000
_symmetry_Int_Tables_number   1
_chemical_formula_structural   NaCl
_chemical_formula_sum   'Na4 Cl4'
_cell_volume   246.05869971
_cell_formula_units_Z   4
loop_
 _symmetry_equiv_pos_site_id
 _symmetry_equiv_pos_as_xyz
  1  'x, y, z'
loop_
 _atom_site_type_symbol
 _atom_site_label
 _atom_site_symmetry_multiplicity
 _atom_site_fract_x
 _atom_site_fract_y
 _atom_site_fract_z
 _atom_site_occupancy
  Na  Na0  1  0.73392127  0.34075184  0.40249566  1.0
  Na  Na1  1  0.53453303  0.35950945  0.51146387  1.0
  Na  Na2  1  0.32153453  0.42867167  0.08330283  1.0
  Na  Na3  1  0.82966075  0.86878816  0.67956020  1.0
  Cl  Cl4  1  0.44394043  0.07498600  0.76011337  1.0
  Cl  Cl5  1  0.15818163  0.42369828  0.26704793  1.0
  Cl  Cl6  1  0.50882360  0.12552688  0.53386442  1.0
  Cl  Cl7  1  0.66847118  0.63006553  0.54496538  1.0
