# generated using pymatgen
data_NaCl
_symmetry_space_group_name_H-M   'P 1'
_cell_length_a   2.79981449
_cell_length_b   2.79981449
_cell_length_c   9.91241726
_cell_angle_alpha   90.00000000
_cell_angle_beta   90.00000000
_cell_angle_gamma   90.00000000
_symmetry_Int_Tables_number   1
_chemical_formula_structural   NaCl
_chemical_formula_sum   'Na4 Cl4'
_cell_volume   77.70305409
_cell_formula_units_Z   4
loop_
 _symmetry_equiv_pos_site_id
 _symmetry_equiv_pos_as_xyz
  1  'x, y, z'
loop_
 _atom_site_type_symbol
 _atom_site_label
 _atom_site_symmetry_multiplicity
 _atom_site_fract_x
 _atom_site_fract_y
 _atom_site_fract_z
 _atom_site_occupancy
  Na  Na0  1  0.66424532  0.57549499  0.23564931  1.0
  Na  Na1  1  0.80533723  0.68897800  0.62830798  1.0
  Na  Na2  1  0.26257511  0.14139942  0.66984692  1.0
  Na  Na3  1  0.95071869  0.63951945  0.50006488  1.0
  Cl  Cl4  1  0.39379120  0.66749277  0.98293147  1.0
  Cl  Cl5  1  0.09491881  0.33647890  0.33957144  1.0
  Cl  Cl6  1  0.86375059  0.24212651  0.78305372  1.0
  Cl  Cl7  1  0.48819701  0.94399824  0.34412388  1.0
