# generated using pymatgen
data_NaCl
_symmetry_space_group_name_H-M   'P 1'
_cell_length_a   4.87394074
_cell_length_b   4.87394074
_cell_length_c   14.31777466
_cell_angle_alpha   90.00000000
_cell_angle_beta   90.00000000
_cell_angle_gamma   90.00000000
_symmetry_Int_Tables_number   1
_chemical_formula_structural   NaCl
_chemical_formula_sum   'Na4 Cl4'
_cell_volume   340.12300857
_cell_formula_units_Z   4
loop_
 _symmetry_equiv_pos_site_id
 _symmetry_equiv_pos_as_xyz
  1  'x, y, z'
loop_
 _atom_site_type_symbol
 _atom_site_label
 _atom_site_symmetry_multiplicity
 _atom_site_fract_x
 _atom_site_fract_y
 _atom_site_fract_z
 _atom_site_occupancy
  Na  Na0  1  0.44541392  0.99890267  0.36755762  1.0
  Na  Na1  1  0.61022202  0.47183358  0.18194879  1.0
  Na  Na2  1  0.00064740  0.28872842  0.07941067  1.0
  Na  Na3  1  0.01648421  0.78006270  0.48943184  1.0
  Cl  Cl4  1  0.24154373  0.92665039  0.42185066  1.0
  Cl  Cl5  1  0.38609723  0.20052996  0.88468845  1.0
  Cl  Cl6  1  0.52761504  0.78273335  0.69882140  1.0
  Cl  Cl7  1  0.66380811  0.36734194  0.59454448  1.0
