# generated using pymatgen
data_NaCl
_symmetry_space_group_name_H-M   'P 1'
_cell_length_a   5.83260822
_cell_length_b   5.83260822
_cell_length_c   9.68316812
_cell_angle_alpha   90.00000000
_cell_angle_beta   90.00000000
_cell_angle_gamma   90.00000000
_symmetry_Int_Tables_number   1
_chemical_formula_structural   NaCl
_chemical_formula_sum   'Na4 Cl4'
_cell_volume   329.41478180
_cell_formula_units_Z   4
loop_
 _symmetry_equiv_pos_site_id
 _symmetry_equiv_pos_as_xyz
  1  'x, y, z'
loop_
 _atom_site_type_symbol
 _atom_site_label
 _atom_site_symmetry_multiplicity
 _atom_site_fract_x
 _atom_site_fract_y
 _atom_site_fract_z
 _atom_site_occupancy
  Na  Na0  1  0.67076069  0.67076069  0.22607552  1.0
  Na  Na1  1  0.69008532  0.69008532  0.71896949  1.0
  Na  Na2  1  0.77995350  0.22004650  0.13481118  1.0
  Na  Na3  1  0.31984528  0.68015472  0.15981971  1.0
  Cl  Cl4  1  0.00000000  0.00000000  0.99985182  1.0
  Cl  Cl5  1  0.00000000  0.00000000  0.40488229  1.0
  Cl  Cl6  1  0.50000000  0.00000000  0.62449302  1.0
  Cl  Cl7  1  0.00000000  0.50000000  0.40904913  1.0
