# generated using pymatgen
data_NaCl
_symmetry_space_group_name_H-M   'P 1'
_cell_length_a   4.76575554
_cell_length_b   4.76575554
_cell_length_c   17.95785112
_cell_angle_alpha   90.00000000
_cell_angle_beta   90.00000000
_cell_angle_gamma   90.00000000
_symmetry_Int_Tables_number   1
_chemical_formula_structural   NaCl
_chemical_formula_sum   'Na4 Cl4'
_cell_volume   407.86636229
_cell_formula_units_Z   4
loop_
 _symmetry_equiv_pos_site_id
 _symmetry_equiv_pos_as_xyz
  1  'x, y, z'
loop_
 _atom_site_type_symbol
 _atom_site_label
 _atom_site_symmetry_multiplicity
 _atom_site_fract_x
 _atom_site_fract_y
 _atom_site_fract_z
 _atom_site_occupancy
  Na  Na0  1  0.59910443  0.83567794  0.36047032  1.0
  Na  Na1  1  0.66069899  0.67439678  0.22837088  1.0
  Na  Na2  1  0.08152569  0.59554211  0.36786178  1.0
  Na  Na3  1  0.12125914  0.82279813  0.86675856  1.0
  Cl  Cl4  1  0.43475879  0.69671398  0.59517201  1.0
  Cl  Cl5  1  0.13038156  0.38059522  0.56787225  1.0
  Cl  Cl6  1  0.68163696  0.49890549  0.86597402  1.0
  Cl  Cl7  1  0.40181423  0.96384802  0.11195694  1.0
