# generated using pymatgen
data_NaCl
_symmetry_space_group_name_H-M   'P 1'
_cell_length_a   5.58922440
_cell_length_b   5.58922440
_cell_length_c   7.16352961
_cell_angle_alpha   90.00000000
_cell_angle_beta   90.00000000
_cell_angle_gamma   90.00000000
_symmetry_Int_Tables_number   1
_chemical_formula_structural   NaCl
_chemical_formula_sum   'Na4 Cl4'
_cell_volume   223.78457746
_cell_formula_units_Z   4
loop_
 _symmetry_equiv_pos_site_id
 _symmetry_equiv_pos_as_xyz
  1  'x, y, z'
loop_
 _atom_site_type_symbol
 _atom_site_label
 _atom_site_symmetry_multiplicity
 _atom_site_fract_x
 _atom_site_fract_y
 _atom_site_fract_z
 _atom_site_occupancy
  Na  Na0  1  0.63749280  0.59776440  0.16688904  1.0
  Na  Na1  1  0.79606896  0.61788635  0.58557646  1.0
  Na  Na2  1  0.21704229  0.14147674  0.20364231  1.0
  Na  Na3  1  0.90878598  0.70730455  0.00019701  1.0
  Cl  Cl4  1  0.00000000  0.00000000  0.94283544  1.0
  Cl  Cl5  1  0.00000000  0.00000000  0.40514385  1.0
  Cl  Cl6  1  0.50000000  0.50000000  0.35015590  1.0
  Cl  Cl7  1  0.50000000  0.50000000  0.82354223  1.0
