# generated using pymatgen
data_NaCl
_symmetry_space_group_name_H-M   'P 1'
_cell_length_a   5.69770231
_cell_length_b   5.69770231
_cell_length_c   5.69770231
_cell_angle_alpha   90.00000000
_cell_angle_beta   90.00000000
_cell_angle_gamma   90.00000000
_symmetry_Int_Tables_number   1
_chemical_formula_structural   NaCl
_chemical_formula_sum   'Na4 Cl4'
_cell_volume   184.96913442
_cell_formula_units_Z   4
loop_
 _symmetry_equiv_pos_site_id
 _symmetry_equiv_pos_as_xyz
  1  'x, y, z'
loop_
 _atom_site_type_symbol
 _atom_site_label
 _atom_site_symmetry_multiplicity
 _atom_site_fract_x
 _atom_site_fract_y
 _atom_site_fract_z
 _atom_site_occupancy
  Na  Na0  1  0.22129306  0.22129306  0.22129306  1.0
  Na  Na1  1  0.26115399  0.76115399  0.73884601  1.0
  Na  Na2  1  0.91536628  0.58463372  0.41536628  1.0
  Na  Na3  1  0.78512220  0.21487780  0.71487780  1.0
  Cl  Cl4  1  0.36861957  0.36861957  0.36861957  1.0
  Cl  Cl5  1  0.96761285  0.46761285  0.03238715  1.0
  Cl  Cl6  1  0.59495366  0.90504634  0.09495366  1.0
  Cl  Cl7  1  0.60872449  0.39127551  0.89127551  1.0
