# generated using pymatgen
data_NaCl
_symmetry_space_group_name_H-M   'P 1'
_cell_length_a   6.21044154
_cell_length_b   6.21044154
_cell_length_c   6.21044154
_cell_angle_alpha   90.00000000
_cell_angle_beta   90.00000000
_cell_angle_gamma   90.00000000
_symmetry_Int_Tables_number   1
_chemical_formula_structural   NaCl
_chemical_formula_sum   'Na4 Cl4'
_cell_volume   239.53414741
_cell_formula_units_Z   4
loop_
 _symmetry_equiv_pos_site_id
 _symmetry_equiv_pos_as_xyz
  1  'x, y, z'
loop_
 _atom_site_type_symbol
 _atom_site_label
 _atom_site_symmetry_multiplicity
 _atom_site_fract_x
 _atom_site_fract_y
 _atom_site_fract_z
 _atom_site_occupancy
  Na  Na0  1  0.70459040  0.70459040  0.70459040  1.0
  Na  Na1  1  0.73532306  0.73532306  0.26467694  1.0
  Na  Na2  1  0.85109862  0.14890138  0.85109862  1.0
  Na  Na3  1  0.25004061  0.74995939  0.74995939  1.0
  Cl  Cl4  1  0.42472557  0.42472557  0.42472557  1.0
  Cl  Cl5  1  0.07615438  0.07615438  0.92384562  1.0
  Cl  Cl6  1  0.73394904  0.26605096  0.73394904  1.0
  Cl  Cl7  1  0.00020341  0.99979659  0.99979659  1.0
