# generated using pymatgen
data_NaCl
_symmetry_space_group_name_H-M   'P 1'
_cell_length_a   6.21089864
_cell_length_b   15.46743257
_cell_length_c   3.10855860
_cell_angle_alpha   90.00000000
_cell_angle_beta   90.00000000
_cell_angle_gamma   90.00000000
_symmetry_Int_Tables_number   1
_chemical_formula_structural   NaCl
_chemical_formula_sum   'Na4 Cl4'
_cell_volume   298.62882950
_cell_formula_units_Z   4
loop_
 _symmetry_equiv_pos_site_id
 _symmetry_equiv_pos_as_xyz
  1  'x, y, z'
loop_
 _atom_site_type_symbol
 _atom_site_label
 _atom_site_symmetry_multiplicity
 _atom_site_fract_x
 _atom_site_fract_y
 _atom_site_fract_z
 _atom_site_occupancy
  Na  Na0  1  0.00000000  0.00000000  0.14377134  1
  Na  Na1  1  0.00000000  0.50000000  1.06406996  1
  Na  Na2  1  0.50000000  0.00000000  1.14773292  1
  Na  Na3  1  0.50000000  0.50000000  0.27543870  1
  Cl  Cl4  1  0.00000000  0.00000000  0.88672559  1
  Cl  Cl5  1  0.00000000  0.50000000  0.52876123  1
  Cl  Cl6  1  0.50000000  0.00000000  1.12483832  1
  Cl  Cl7  1  0.50000000  0.50000000  0.82095885  1
