# generated using pymatgen
data_NaCl
_symmetry_space_group_name_H-M   'P 1'
_cell_length_a   4.21943345
_cell_length_b   8.34149681
_cell_length_c   11.57715383
_cell_angle_alpha   90.00000000
_cell_angle_beta   90.00000000
_cell_angle_gamma   90.00000000
_symmetry_Int_Tables_number   1
_chemical_formula_structural   NaCl
_chemical_formula_sum   'Na4 Cl4'
_cell_volume   407.47402897
_cell_formula_units_Z   4
loop_
 _symmetry_equiv_pos_site_id
 _symmetry_equiv_pos_as_xyz
  1  'x, y, z'
loop_
 _atom_site_type_symbol
 _atom_site_label
 _atom_site_symmetry_multiplicity
 _atom_site_fract_x
 _atom_site_fract_y
 _atom_site_fract_z
 _atom_site_occupancy
  Na  Na0  1  0.33161179  0.20046711  0.71413043  1.0
  Na  Na1  1  0.14686200  0.16233379  0.93480358  1.0
  Na  Na2  1  0.32186821  0.34323454  0.07325273  1.0
  Na  Na3  1  0.67632819  0.20668908  0.90978313  1.0
  Cl  Cl4  1  0.24738937  0.96205706  0.10999199  1.0
  Cl  Cl5  1  0.84244229  0.47889175  0.10476710  1.0
  Cl  Cl6  1  0.20063681  0.62605216  0.89982426  1.0
  Cl  Cl7  1  0.03059802  0.23486616  0.10104949  1.0
