# generated using pymatgen
data_NaCl
_symmetry_space_group_name_H-M   'P 1'
_cell_length_a   7.21537605
_cell_length_b   10.87783616
_cell_length_c   6.48962613
_cell_angle_alpha   90.00000000
_cell_angle_beta   149.59691825
_cell_angle_gamma   90.00000000
_symmetry_Int_Tables_number   1
_chemical_formula_structural   NaCl
_chemical_formula_sum   'Na4 Cl4'
_cell_volume   257.77480627
_cell_formula_units_Z   4
loop_
 _symmetry_equiv_pos_site_id
 _symmetry_equiv_pos_as_xyz
  1  'x, y, z'
loop_
 _atom_site_type_symbol
 _atom_site_label
 _atom_site_symmetry_multiplicity
 _atom_site_fract_x
 _atom_site_fract_y
 _atom_site_fract_z
 _atom_site_occupancy
  Na  Na0  1  0.44521983  0.03416098  0.00155658  1.0
  Na  Na1  1  0.78927418  0.21895324  0.07593853  1.0
  Na  Na2  1  0.64142027  0.85358964  0.01751979  1.0
  Na  Na3  1  0.69947392  0.94286003  0.93344716  1.0
  Cl  Cl4  1  0.41945309  0.57010817  0.11632720  1.0
  Cl  Cl5  1  0.40123884  0.46524951  0.50685739  1.0
  Cl  Cl6  1  0.79501308  0.42374171  0.34676425  1.0
  Cl  Cl7  1  0.63760905  0.76297451  0.57308557  1.0
