# generated using pymatgen
data_NaCl
_symmetry_space_group_name_H-M   'P 1'
_cell_length_a   5.49651222
_cell_length_b   7.08050112
_cell_length_c   10.22932346
_cell_angle_alpha   90.00000000
_cell_angle_beta   90.00000000
_cell_angle_gamma   90.00000000
_symmetry_Int_Tables_number   1
_chemical_formula_structural   NaCl
_chemical_formula_sum   'Na4 Cl4'
_cell_volume   398.10543369
_cell_formula_units_Z   4
loop_
 _symmetry_equiv_pos_site_id
 _symmetry_equiv_pos_as_xyz
  1  'x, y, z'
loop_
 _atom_site_type_symbol
 _atom_site_label
 _atom_site_symmetry_multiplicity
 _atom_site_fract_x
 _atom_site_fract_y
 _atom_site_fract_z
 _atom_site_occupancy
  Na  Na0  1  0.00000000  0.25000000  0.46732142  1.0
  Na  Na1  1  0.00000000  0.75000000  0.98657390  1.0
  Na  Na2  1  0.50000000  0.75000000  0.53813678  1.0
  Na  Na3  1  0.50000000  0.25000000  0.25812877  1.0
  Cl  Cl4  1  0.00000000  0.25000000  0.20328208  1.0
  Cl  Cl5  1  0.00000000  0.75000000  0.11672083  1.0
  Cl  Cl6  1  0.50000000  0.75000000  0.41260984  1.0
  Cl  Cl7  1  0.50000000  0.25000000  0.78546993  1.0
