# generated using pymatgen
data_NaCl
_symmetry_space_group_name_H-M   'P 1'
_cell_length_a   3.99109907
_cell_length_b   8.03131300
_cell_length_c   7.44013243
_cell_angle_alpha   90.00000000
_cell_angle_beta   90.00000000
_cell_angle_gamma   90.00000000
_symmetry_Int_Tables_number   1
_chemical_formula_structural   NaCl
_chemical_formula_sum   'Na4 Cl4'
_cell_volume   238.48426277
_cell_formula_units_Z   4
loop_
 _symmetry_equiv_pos_site_id
 _symmetry_equiv_pos_as_xyz
  1  'x, y, z'
loop_
 _atom_site_type_symbol
 _atom_site_label
 _atom_site_symmetry_multiplicity
 _atom_site_fract_x
 _atom_site_fract_y
 _atom_site_fract_z
 _atom_site_occupancy
  Na  Na0  1  0.57199111  0.18181489  0.60316407  1.0
  Na  Na1  1  0.24235700  0.60175178  0.74558648  1.0
  Na  Na2  1  0.11966435  0.62395314  0.26652688  1.0
  Na  Na3  1  0.50005929  0.54068368  0.91359727  1.0
  Cl  Cl4  1  0.11365286  0.35686921  0.04952323  1.0
  Cl  Cl5  1  0.59549420  0.40186769  0.09603880  1.0
  Cl  Cl6  1  0.95599956  0.23115497  0.99955620  1.0
  Cl  Cl7  1  0.63866043  0.60112784  0.52152598  1.0
