# generated using pymatgen
data_NaCl
_symmetry_space_group_name_H-M   'P 1'
_cell_length_a   4.53089547
_cell_length_b   10.53302321
_cell_length_c   6.90146669
_cell_angle_alpha   90.00000000
_cell_angle_beta   66.14539453
_cell_angle_gamma   90.00000000
_symmetry_Int_Tables_number   1
_chemical_formula_structural   NaCl
_chemical_formula_sum   'Na4 Cl4'
_cell_volume   301.22959812
_cell_formula_units_Z   4
loop_
 _symmetry_equiv_pos_site_id
 _symmetry_equiv_pos_as_xyz
  1  'x, y, z'
loop_
 _atom_site_type_symbol
 _atom_site_label
 _atom_site_symmetry_multiplicity
 _atom_site_fract_x
 _atom_site_fract_y
 _atom_site_fract_z
 _atom_site_occupancy
  Na  Na0  1  0.39192566  0.62557289  0.50723857  1.0
  Na  Na1  1  0.97405754  0.38447345  0.41108359  1.0
  Na  Na2  1  0.34178216  0.00466120  0.19033135  1.0
  Na  Na3  1  0.45194148  0.07754842  0.37499965  1.0
  Cl  Cl4  1  0.05422231  0.54503896  0.24071057  1.0
  Cl  Cl5  1  0.47460496  0.21655181  0.44862623  1.0
  Cl  Cl6  1  0.32390517  0.76145960  0.98995989  1.0
  Cl  Cl7  1  0.99223204  0.35259970  0.59247272  1.0
