# generated using pymatgen
data_NaCl
_symmetry_space_group_name_H-M   'P 1'
_cell_length_a   6.47117793
_cell_length_b   6.47117793
_cell_length_c   9.53795686
_cell_angle_alpha   90.00000000
_cell_angle_beta   90.00000000
_cell_angle_gamma   90.00000000
_symmetry_Int_Tables_number   1
_chemical_formula_structural   NaCl
_chemical_formula_sum   'Na4 Cl4'
_cell_volume   399.41285304
_cell_formula_units_Z   4
loop_
 _symmetry_equiv_pos_site_id
 _symmetry_equiv_pos_as_xyz
  1  'x, y, z'
loop_
 _atom_site_type_symbol
 _atom_site_label
 _atom_site_symmetry_multiplicity
 _atom_site_fract_x
 _atom_site_fract_y
 _atom_site_fract_z
 _atom_site_occupancy
  Na  Na0  1  0.99994999  0.99994999  0.00000000  1.0
  Na  Na1  1  0.37349462  0.37349462  0.50000000  1.0
  Na  Na2  1  0.31923425  0.68076575  0.25000000  1.0
  Na  Na3  1  0.91500875  0.08499125  0.75000000  1.0
  Cl  Cl4  1  0.23632536  0.23632536  0.00000000  1.0
  Cl  Cl5  1  0.90829619  0.90829619  0.50000000  1.0
  Cl  Cl6  1  0.73647051  0.26352949  0.25000000  1.0
  Cl  Cl7  1  0.77704695  0.22295305  0.75000000  1.0
