# generated using pymatgen
data_NaCl
_symmetry_space_group_name_H-M   'P 1'
_cell_length_a   6.08240745
_cell_length_b   9.04230969
_cell_length_c   2.87680195
_cell_angle_alpha   90.00000000
_cell_angle_beta   90.00000000
_cell_angle_gamma   90.00000000
_symmetry_Int_Tables_number   1
_chemical_formula_structural   NaCl
_chemical_formula_sum   'Na4 Cl4'
_cell_volume   158.22126446
_cell_formula_units_Z   4
loop_
 _symmetry_equiv_pos_site_id
 _symmetry_equiv_pos_as_xyz
  1  'x, y, z'
loop_
 _atom_site_type_symbol
 _atom_site_label
 _atom_site_symmetry_multiplicity
 _atom_site_fract_x
 _atom_site_fract_y
 _atom_site_fract_z
 _atom_site_occupancy
  Na  Na0  1  0.42442478  0.16851623  0.41963055  1.0
  Na  Na1  1  0.25257309  0.01316329  0.00536902  1.0
  Na  Na2  1  0.55238255  0.02915649  0.68358897  1.0
  Na  Na3  1  0.18206387  0.08327367  0.39206957  1.0
  Cl  Cl4  1  0.00000000  0.78365695  0.32527910  1.0
  Cl  Cl5  1  0.00000000  0.29136921  0.06182106  1.0
  Cl  Cl6  1  0.50000000  0.45656324  0.98218354  1.0
  Cl  Cl7  1  0.50000000  0.77342205  0.72987694  1.0
