# generated using pymatgen
data_NaCl
_symmetry_space_group_name_H-M   'P 1'
_cell_length_a   5.30374914
_cell_length_b   4.99485284
_cell_length_c   10.57611562
_cell_angle_alpha   90.00000000
_cell_angle_beta   90.00000000
_cell_angle_gamma   90.00000000
_symmetry_Int_Tables_number   1
_chemical_formula_structural   NaCl
_chemical_formula_sum   'Na4 Cl4'
_cell_volume   280.17660064
_cell_formula_units_Z   4
loop_
 _symmetry_equiv_pos_site_id
 _symmetry_equiv_pos_as_xyz
  1  'x, y, z'
loop_
 _atom_site_type_symbol
 _atom_site_label
 _atom_site_symmetry_multiplicity
 _atom_site_fract_x
 _atom_site_fract_y
 _atom_site_fract_z
 _atom_site_occupancy
  Na  Na0  1  0.50000000  0.26375767  0.69490166  1.0
  Na  Na1  1  0.50000000  0.08569740  0.04308355  1.0
  Na  Na2  1  0.50000000  0.65240645  0.01890173  1.0
  Na  Na3  1  0.50000000  0.64069164  0.83556657  1.0
  Cl  Cl4  1  0.23884802  0.99882597  0.12777385  1.0
  Cl  Cl5  1  0.66027707  0.39693902  0.85370503  1.0
  Cl  Cl6  1  0.97092603  0.64972296  0.94984206  1.0
  Cl  Cl7  1  0.59299021  0.52303894  0.16490347  1.0
