# generated using pymatgen
data_NaCl
_symmetry_space_group_name_H-M   'P 1'
_cell_length_a   3.14493879
_cell_length_b   6.51445850
_cell_length_c   6.33871999
_cell_angle_alpha   90.00000000
_cell_angle_beta   90.00000000
_cell_angle_gamma   90.00000000
_symmetry_Int_Tables_number   1
_chemical_formula_structural   NaCl
_chemical_formula_sum   'Na4 Cl4'
_cell_volume   129.86499000
_cell_formula_units_Z   4
loop_
 _symmetry_equiv_pos_site_id
 _symmetry_equiv_pos_as_xyz
  1  'x, y, z'
loop_
 _atom_site_type_symbol
 _atom_site_label
 _atom_site_symmetry_multiplicity
 _atom_site_fract_x
 _atom_site_fract_y
 _atom_site_fract_z
 _atom_site_occupancy
  Na  Na0  1  0.00000000  0.08264455  0.00142976  1.0
  Na  Na1  1  0.00000000  0.72705697  0.97595689  1.0
  Na  Na2  1  0.50000000  0.33033708  0.17528388  1.0
  Na  Na3  1  0.50000000  0.28021916  0.71300721  1.0
  Cl  Cl4  1  0.00000000  0.50084779  0.20146655  1.0
  Cl  Cl5  1  0.00000000  0.23449398  0.06883714  1.0
  Cl  Cl6  1  0.50000000  0.93606840  0.31625150  1.0
  Cl  Cl7  1  0.50000000  0.09645810  0.50054626  1.0
