# generated using pymatgen
data_NaCl
_symmetry_space_group_name_H-M   'P 1'
_cell_length_a   5.71801422
_cell_length_b   7.63963739
_cell_length_c   8.83334465
_cell_angle_alpha   90.00000000
_cell_angle_beta   90.00000000
_cell_angle_gamma   90.00000000
_symmetry_Int_Tables_number   1
_chemical_formula_structural   NaCl
_chemical_formula_sum   'Na4 Cl4'
_cell_volume   385.87189890
_cell_formula_units_Z   4
loop_
 _symmetry_equiv_pos_site_id
 _symmetry_equiv_pos_as_xyz
  1  'x, y, z'
loop_
 _atom_site_type_symbol
 _atom_site_label
 _atom_site_symmetry_multiplicity
 _atom_site_fract_x
 _atom_site_fract_y
 _atom_site_fract_z
 _atom_site_occupancy
  Na  Na0  1  0.61552562  0.25000000  0.47648514  1.0
  Na  Na1  1  0.11074382  0.75000000  0.40378799  1.0
  Na  Na2  1  0.76619398  0.75000000  0.66020924  1.0
  Na  Na3  1  0.13723566  0.25000000  0.83730054  1.0
  Cl  Cl4  1  0.50000000  0.00000000  0.12142054  1.0
  Cl  Cl5  1  0.50000000  0.50000000  0.45156702  1.0
  Cl  Cl6  1  0.50000000  0.50000000  0.31213549  1.0
  Cl  Cl7  1  0.50000000  0.00000000  0.61024213  1.0
