# generated using pymatgen
data_NaCl
_symmetry_space_group_name_H-M   'P 1'
_cell_length_a   5.08843499
_cell_length_b   7.10877472
_cell_length_c   8.59360789
_cell_angle_alpha   90.00000000
_cell_angle_beta   90.00000000
_cell_angle_gamma   90.00000000
_symmetry_Int_Tables_number   1
_chemical_formula_structural   NaCl
_chemical_formula_sum   'Na4 Cl4'
_cell_volume   310.85260814
_cell_formula_units_Z   4
loop_
 _symmetry_equiv_pos_site_id
 _symmetry_equiv_pos_as_xyz
  1  'x, y, z'
loop_
 _atom_site_type_symbol
 _atom_site_label
 _atom_site_symmetry_multiplicity
 _atom_site_fract_x
 _atom_site_fract_y
 _atom_site_fract_z
 _atom_site_occupancy
  Na  Na0  1  0.21708371  0.03037982  0.00087465  1.0
  Na  Na1  1  0.70873211  0.14012286  0.98141066  1.0
  Na  Na2  1  0.49864067  0.47670671  0.57769721  1.0
  Na  Na3  1  0.11926517  0.26545204  0.72605879  1.0
  Cl  Cl4  1  0.24477396  0.40201831  0.01582417  1.0
  Cl  Cl5  1  0.99553447  0.51744708  0.10425860  1.0
  Cl  Cl6  1  0.33000738  0.47877997  0.36385343  1.0
  Cl  Cl7  1  0.48512380  0.51052147  0.15598760  1.0
