# generated using pymatgen
data_NaCl
_symmetry_space_group_name_H-M   'P 1'
_cell_length_a   4.96665940
_cell_length_b   6.79496080
_cell_length_c   3.53451248
_cell_angle_alpha   90.00000000
_cell_angle_beta   141.49897733
_cell_angle_gamma   90.00000000
_symmetry_Int_Tables_number   1
_chemical_formula_structural   NaCl
_chemical_formula_sum   'Na4 Cl4'
_cell_volume   74.25747291
_cell_formula_units_Z   4
loop_
 _symmetry_equiv_pos_site_id
 _symmetry_equiv_pos_as_xyz
  1  'x, y, z'
loop_
 _atom_site_type_symbol
 _atom_site_label
 _atom_site_symmetry_multiplicity
 _atom_site_fract_x
 _atom_site_fract_y
 _atom_site_fract_z
 _atom_site_occupancy
  Na  Na0  1  0.34789331  0.47369351  0.52179273  1.0
  Na  Na1  1  0.08908703  0.90034933  0.46344152  1.0
  Na  Na2  1  0.21198815  0.23644847  0.00081854  1.0
  Na  Na3  1  0.73197482  0.51780308  0.55851893  1.0
  Cl  Cl4  1  0.00000000  0.89975077  0.00000000  1.0
  Cl  Cl5  1  0.50000000  0.81977055  0.00000000  1.0
  Cl  Cl6  1  0.00000000  0.31091394  0.50000000  1.0
  Cl  Cl7  1  0.50000000  0.72437273  0.50000000  1.0
