# generated using pymatgen
data_NaCl
_symmetry_space_group_name_H-M   'P 1'
_cell_length_a   4.10087724
_cell_length_b   5.60960523
_cell_length_c   9.17863551
_cell_angle_alpha   90.00000000
_cell_angle_beta   94.31949107
_cell_angle_gamma   90.00000000
_symmetry_Int_Tables_number   1
_chemical_formula_structural   NaCl
_chemical_formula_sum   'Na4 Cl4'
_cell_volume   210.54835545
_cell_formula_units_Z   4
loop_
 _symmetry_equiv_pos_site_id
 _symmetry_equiv_pos_as_xyz
  1  'x, y, z'
loop_
 _atom_site_type_symbol
 _atom_site_label
 _atom_site_symmetry_multiplicity
 _atom_site_fract_x
 _atom_site_fract_y
 _atom_site_fract_z
 _atom_site_occupancy
  Na  Na0  1  0.26348427  0.14902423  0.75832191  1.0
  Na  Na1  1  0.85864232  0.16356802  0.45743020  1.0
  Na  Na2  1  0.09963852  0.17915588  0.04840136  1.0
  Na  Na3  1  0.24579671  0.36077323  0.57864310  1.0
  Cl  Cl4  1  0.20033255  0.66816517  0.29250296  1.0
  Cl  Cl5  1  0.03229227  0.39625661  0.22950881  1.0
  Cl  Cl6  1  0.27525943  0.79351251  0.83222760  1.0
  Cl  Cl7  1  0.85316510  0.14558030  0.11688993  1.0
