# generated using pymatgen
data_NaCl
_symmetry_space_group_name_H-M   'P 1'
_cell_length_a   8.77507581
_cell_length_b   8.77507581
_cell_length_c   5.23092424
_cell_angle_alpha   90.00000000
_cell_angle_beta   90.00000000
_cell_angle_gamma   90.00000000
_symmetry_Int_Tables_number   1
_chemical_formula_structural   NaCl
_chemical_formula_sum   'Na4 Cl4'
_cell_volume   402.79139540
_cell_formula_units_Z   4
loop_
 _symmetry_equiv_pos_site_id
 _symmetry_equiv_pos_as_xyz
  1  'x, y, z'
loop_
 _atom_site_type_symbol
 _atom_site_label
 _atom_site_symmetry_multiplicity
 _atom_site_fract_x
 _atom_site_fract_y
 _atom_site_fract_z
 _atom_site_occupancy
  Na  Na0  1  0.31714172  0.81714172  0.54849986  1.0
  Na  Na1  1  0.01684191  0.51684191  0.44215896  1.0
  Na  Na2  1  0.29263660  0.20736340  0.98213734  1.0
  Na  Na3  1  0.66237941  0.83762059  0.72606237  1.0
  Cl  Cl4  1  0.00000000  0.00000000  0.50000000  1.0
  Cl  Cl5  1  0.50000000  0.50000000  0.50000000  1.0
  Cl  Cl6  1  0.00000000  0.50000000  0.83329741  1.0
  Cl  Cl7  1  0.50000000  0.00000000  0.42092782  1.0
