# generated using pymatgen
data_NaCl
_symmetry_space_group_name_H-M   'P 1'
_cell_length_a   6.99240197
_cell_length_b   5.00264386
_cell_length_c   10.16358134
_cell_angle_alpha   90.00000000
_cell_angle_beta   90.00000000
_cell_angle_gamma   90.00000000
_symmetry_Int_Tables_number   1
_chemical_formula_structural   NaCl
_chemical_formula_sum   'Na4 Cl4'
_cell_volume   355.52712436
_cell_formula_units_Z   4
loop_
 _symmetry_equiv_pos_site_id
 _symmetry_equiv_pos_as_xyz
  1  'x, y, z'
loop_
 _atom_site_type_symbol
 _atom_site_label
 _atom_site_symmetry_multiplicity
 _atom_site_fract_x
 _atom_site_fract_y
 _atom_site_fract_z
 _atom_site_occupancy
  Na  Na0  1  0.00000000  0.00000000  0.51504456  1.0
  Na  Na1  1  0.00000000  0.50000000  0.49502746  1.0
  Na  Na2  1  0.50000000  0.63650703  0.00040778  1.0
  Na  Na3  1  0.50000000  0.89964839  0.26224106  1.0
  Cl  Cl4  1  0.50000000  0.50000000  0.24916937  1.0
  Cl  Cl5  1  0.50000000  0.50000000  0.49967509  1.0
  Cl  Cl6  1  0.72222522  0.50000000  0.95718274  1.0
  Cl  Cl7  1  0.59593957  0.50000000  0.15907897  1.0
