# generated using pymatgen
data_NaCl
_symmetry_space_group_name_H-M   'P 1'
_cell_length_a   7.25449876
_cell_length_b   7.25449876
_cell_length_c   7.81444753
_cell_angle_alpha   90.00000000
_cell_angle_beta   90.00000000
_cell_angle_gamma   90.00000000
_symmetry_Int_Tables_number   1
_chemical_formula_structural   NaCl
_chemical_formula_sum   'Na4 Cl4'
_cell_volume   411.25680865
_cell_formula_units_Z   4
loop_
 _symmetry_equiv_pos_site_id
 _symmetry_equiv_pos_as_xyz
  1  'x, y, z'
loop_
 _atom_site_type_symbol
 _atom_site_label
 _atom_site_symmetry_multiplicity
 _atom_site_fract_x
 _atom_site_fract_y
 _atom_site_fract_z
 _atom_site_occupancy
  Na  Na0  1  0.47573635  0.20406450  0.51714675  1.0
  Na  Na1  1  0.15645018  0.90287826  0.94069617  1.0
  Na  Na2  1  0.16661589  0.81495253  0.44032084  1.0
  Na  Na3  1  0.24404657  0.04670665  0.07018857  1.0
  Cl  Cl4  1  0.21928677  0.82169692  0.12333646  1.0
  Cl  Cl5  1  0.72697924  0.29399265  0.97382840  1.0
  Cl  Cl6  1  0.64253515  0.63108421  0.06724043  1.0
  Cl  Cl7  1  0.21650872  0.27780308  0.77049933  1.0
