# generated using pymatgen
data_NaCl
_symmetry_space_group_name_H-M   'P 1'
_cell_length_a   5.21094025
_cell_length_b   5.21094025
_cell_length_c   6.94017530
_cell_angle_alpha   90.00000000
_cell_angle_beta   90.00000000
_cell_angle_gamma   90.00000000
_symmetry_Int_Tables_number   1
_chemical_formula_structural   NaCl
_chemical_formula_sum   'Na4 Cl4'
_cell_volume   188.45281420
_cell_formula_units_Z   4
loop_
 _symmetry_equiv_pos_site_id
 _symmetry_equiv_pos_as_xyz
  1  'x, y, z'
loop_
 _atom_site_type_symbol
 _atom_site_label
 _atom_site_symmetry_multiplicity
 _atom_site_fract_x
 _atom_site_fract_y
 _atom_site_fract_z
 _atom_site_occupancy
  Na  Na0  1  0.01424840  0.17446501  0.39081869  1.0
  Na  Na1  1  0.97718106  0.15066298  0.95139647  1.0
  Na  Na2  1  0.48401505  0.71917039  0.26662201  1.0
  Na  Na3  1  0.04680430  0.07704418  0.17801425  1.0
  Cl  Cl4  1  0.25694034  0.94862165  0.10905844  1.0
  Cl  Cl5  1  0.46017610  0.36765554  0.02727789  1.0
  Cl  Cl6  1  0.70118251  0.86276304  0.18035018  1.0
  Cl  Cl7  1  0.34539083  0.27687183  0.92760727  1.0
