# generated using pymatgen
data_NaCl
_symmetry_space_group_name_H-M   'P 1'
_cell_length_a   8.58211478
_cell_length_b   6.64581560
_cell_length_c   12.91124511
_cell_angle_alpha   93.92188871
_cell_angle_beta   89.55279925
_cell_angle_gamma   32.39384731
_symmetry_Int_Tables_number   1
_chemical_formula_structural   NaCl
_chemical_formula_sum   'Na4 Cl4'
_cell_volume   390.61749554
_cell_formula_units_Z   4
loop_
 _symmetry_equiv_pos_site_id
 _symmetry_equiv_pos_as_xyz
  1  'x, y, z'
loop_
 _atom_site_type_symbol
 _atom_site_label
 _atom_site_symmetry_multiplicity
 _atom_site_fract_x
 _atom_site_fract_y
 _atom_site_fract_z
 _atom_site_occupancy
  Na  Na0  1  0.15631569  0.47242983  0.53709365  1.0
  Na  Na1  1  0.04880270  0.06450116  0.48470560  1.0
  Na  Na2  1  0.46673861  0.88013908  0.16754252  1.0
  Na  Na3  1  0.55576105  0.95723633  0.62333185  1.0
  Cl  Cl4  1  0.50000000  0.00000000  0.00000000  1.0
  Cl  Cl5  1  0.50000000  0.50000000  0.50000000  1.0
  Cl  Cl6  1  0.76328163  0.21201473  0.69384522  1.0
  Cl  Cl7  1  0.28649405  0.67371854  0.35272419  1.0
