# generated using pymatgen
data_NaCl
_symmetry_space_group_name_H-M   'P 1'
_cell_length_a   6.52765389
_cell_length_b   14.95614817
_cell_length_c   3.74584383
_cell_angle_alpha   90.00000000
_cell_angle_beta   90.00000000
_cell_angle_gamma   90.00000000
_symmetry_Int_Tables_number   1
_chemical_formula_structural   NaCl
_chemical_formula_sum   'Na4 Cl4'
_cell_volume   365.70133454
_cell_formula_units_Z   4
loop_
 _symmetry_equiv_pos_site_id
 _symmetry_equiv_pos_as_xyz
  1  'x, y, z'
loop_
 _atom_site_type_symbol
 _atom_site_label
 _atom_site_symmetry_multiplicity
 _atom_site_fract_x
 _atom_site_fract_y
 _atom_site_fract_z
 _atom_site_occupancy
  Na  Na0  1  0.25000000  0.04222363  0.51206206  1.0
  Na  Na1  1  0.75000000  0.95599115  0.56638004  1.0
  Na  Na2  1  0.25000000  0.18463622  0.63610791  1.0
  Na  Na3  1  0.75000000  0.41152447  0.16336829  1.0
  Cl  Cl4  1  0.25000000  0.83400581  0.10806394  1.0
  Cl  Cl5  1  0.75000000  0.32191887  0.33127536  1.0
  Cl  Cl6  1  0.25000000  0.79144096  0.29850597  1.0
  Cl  Cl7  1  0.75000000  0.49866110  0.51530535  1.0
