# generated using pymatgen
data_NaCl
_symmetry_space_group_name_H-M   'P 1'
_cell_length_a   5.66351717
_cell_length_b   10.48728001
_cell_length_c   6.51341735
_cell_angle_alpha   90.00000000
_cell_angle_beta   121.03855812
_cell_angle_gamma   90.00000000
_symmetry_Int_Tables_number   1
_chemical_formula_structural   NaCl
_chemical_formula_sum   'Na4 Cl4'
_cell_volume   331.47275847
_cell_formula_units_Z   4
loop_
 _symmetry_equiv_pos_site_id
 _symmetry_equiv_pos_as_xyz
  1  'x, y, z'
loop_
 _atom_site_type_symbol
 _atom_site_label
 _atom_site_symmetry_multiplicity
 _atom_site_fract_x
 _atom_site_fract_y
 _atom_site_fract_z
 _atom_site_occupancy
  Na  Na0  1  0.28308404  0.37015351  0.72388466  1.0
  Na  Na1  1  0.89281048  0.18567700  0.63169221  1.0
  Na  Na2  1  0.68321903  0.19152965  0.06469551  1.0
  Na  Na3  1  0.74705947  0.91988980  0.54112595  1.0
  Cl  Cl4  1  0.53361444  0.00000000  0.04711894  1.0
  Cl  Cl5  1  0.27229072  0.00000000  0.54868463  1.0
  Cl  Cl6  1  0.78418468  0.00000000  0.69380271  1.0
  Cl  Cl7  1  0.56079718  0.50000000  0.01982956  1.0
