# generated using pymatgen
data_NaCl
_symmetry_space_group_name_H-M   'P 1'
_cell_length_a   6.54373752
_cell_length_b   12.13703490
_cell_length_c   10.59486865
_cell_angle_alpha   90.00000000
_cell_angle_beta   153.23281186
_cell_angle_gamma   90.00000000
_symmetry_Int_Tables_number   1
_chemical_formula_structural   NaCl
_chemical_formula_sum   'Na4 Cl4'
_cell_volume   378.96573067
_cell_formula_units_Z   4
loop_
 _symmetry_equiv_pos_site_id
 _symmetry_equiv_pos_as_xyz
  1  'x, y, z'
loop_
 _atom_site_type_symbol
 _atom_site_label
 _atom_site_symmetry_multiplicity
 _atom_site_fract_x
 _atom_site_fract_y
 _atom_site_fract_z
 _atom_site_occupancy
  Na  Na0  1  0.23888159  0.13494593  0.67533298  1.0
  Na  Na1  1  0.81806581  0.23938242  0.42171142  1.0
  Na  Na2  1  0.22589411  0.24503791  0.75178851  1.0
  Na  Na3  1  0.33748929  0.27070986  0.34218813  1.0
  Cl  Cl4  1  0.26707026  0.93893204  0.11638181  1.0
  Cl  Cl5  1  0.20790180  0.40662251  0.41551236  1.0
  Cl  Cl6  1  0.16164696  0.89888980  0.98173729  1.0
  Cl  Cl7  1  0.90757701  0.09088533  0.15608121  1.0
