# generated using pymatgen
data_NaCl
_symmetry_space_group_name_H-M   'P 1'
_cell_length_a   2.45806541
_cell_length_b   10.97263380
_cell_length_c   8.93834836
_cell_angle_alpha   90.00000000
_cell_angle_beta   90.00000000
_cell_angle_gamma   90.00000000
_symmetry_Int_Tables_number   1
_chemical_formula_structural   NaCl
_chemical_formula_sum   'Na4 Cl4'
_cell_volume   241.08023018
_cell_formula_units_Z   4
loop_
 _symmetry_equiv_pos_site_id
 _symmetry_equiv_pos_as_xyz
  1  'x, y, z'
loop_
 _atom_site_type_symbol
 _atom_site_label
 _atom_site_symmetry_multiplicity
 _atom_site_fract_x
 _atom_site_fract_y
 _atom_site_fract_z
 _atom_site_occupancy
  Na  Na0  1  0.24242878  0.41666476  0.58025441  1.0
  Na  Na1  1  0.00185291  0.06403001  0.50626211  1.0
  Na  Na2  1  0.78624027  0.88424947  0.53199664  1.0
  Na  Na3  1  0.11720881  0.74383456  0.92837925  1.0
  Cl  Cl4  1  0.50000000  0.00000000  0.08673620  1.0
  Cl  Cl5  1  0.50000000  0.50000000  0.87163681  1.0
  Cl  Cl6  1  0.50000000  0.00000000  0.97503188  1.0
  Cl  Cl7  1  0.50000000  0.50000000  0.56334803  1.0
