# generated using pymatgen
data_NaCl
_symmetry_space_group_name_H-M   'P 1'
_cell_length_a   7.45440453
_cell_length_b   7.26769437
_cell_length_c   6.81423926
_cell_angle_alpha   90.00000000
_cell_angle_beta   102.19588883
_cell_angle_gamma   90.00000000
_symmetry_Int_Tables_number   1
_chemical_formula_structural   NaCl
_chemical_formula_sum   'Na4 Cl4'
_cell_volume   360.83871226
_cell_formula_units_Z   4
loop_
 _symmetry_equiv_pos_site_id
 _symmetry_equiv_pos_as_xyz
  1  'x, y, z'
loop_
 _atom_site_type_symbol
 _atom_site_label
 _atom_site_symmetry_multiplicity
 _atom_site_fract_x
 _atom_site_fract_y
 _atom_site_fract_z
 _atom_site_occupancy
  Na  Na0  1  0.79157635  0.41249056  0.61553107  1.0
  Na  Na1  1  0.10925419  0.50915155  0.78044057  1.0
  Na  Na2  1  0.94060777  0.87135590  0.85015305  1.0
  Na  Na3  1  0.82682331  0.93931746  0.53461597  1.0
  Cl  Cl4  1  0.48132504  0.79019174  0.27295517  1.0
  Cl  Cl5  1  0.77425551  0.87997036  0.65735855  1.0
  Cl  Cl6  1  0.28563780  0.86681268  0.30069895  1.0
  Cl  Cl7  1  0.38166681  0.44779168  0.68761622  1.0
