# generated using pymatgen
data_NaCl
_symmetry_space_group_name_H-M   'P 1'
_cell_length_a   6.49707350
_cell_length_b   7.63272127
_cell_length_c   7.85163270
_cell_angle_alpha   90.00000000
_cell_angle_beta   90.00000000
_cell_angle_gamma   90.00000000
_symmetry_Int_Tables_number   1
_chemical_formula_structural   NaCl
_chemical_formula_sum   'Na4 Cl4'
_cell_volume   389.36522227
_cell_formula_units_Z   4
loop_
 _symmetry_equiv_pos_site_id
 _symmetry_equiv_pos_as_xyz
  1  'x, y, z'
loop_
 _atom_site_type_symbol
 _atom_site_label
 _atom_site_symmetry_multiplicity
 _atom_site_fract_x
 _atom_site_fract_y
 _atom_site_fract_z
 _atom_site_occupancy
  Na  Na0  1  0.42183956  0.01509648  0.50822727  1.0
  Na  Na1  1  0.17458052  0.37712695  0.42801045  1.0
  Na  Na2  1  0.72578900  0.84725095  0.52068319  1.0
  Na  Na3  1  0.04947729  0.73834519  0.74791536  1.0
  Cl  Cl4  1  0.00000000  0.00000000  0.13031245  1.0
  Cl  Cl5  1  0.00000000  0.50000000  0.97339925  1.0
  Cl  Cl6  1  0.00000000  0.00000000  0.85181544  1.0
  Cl  Cl7  1  0.00000000  0.50000000  0.54874545  1.0
