# generated using pymatgen
data_NaCl
_symmetry_space_group_name_H-M   'P 1'
_cell_length_a   5.43108279
_cell_length_b   9.31443831
_cell_length_c   7.81477585
_cell_angle_alpha   90.00000000
_cell_angle_beta   90.00000000
_cell_angle_gamma   90.00000000
_symmetry_Int_Tables_number   1
_chemical_formula_structural   NaCl
_chemical_formula_sum   'Na4 Cl4'
_cell_volume   395.32986081
_cell_formula_units_Z   4
loop_
 _symmetry_equiv_pos_site_id
 _symmetry_equiv_pos_as_xyz
  1  'x, y, z'
loop_
 _atom_site_type_symbol
 _atom_site_label
 _atom_site_symmetry_multiplicity
 _atom_site_fract_x
 _atom_site_fract_y
 _atom_site_fract_z
 _atom_site_occupancy
  Na  Na0  1  0.32619407  0.28922949  0.82649591  1.0
  Na  Na1  1  0.06774151  0.70844264  0.39002463  1.0
  Na  Na2  1  0.38060643  0.60955686  0.11862366  1.0
  Na  Na3  1  0.63413462  0.55417142  0.27673853  1.0
  Cl  Cl4  1  0.00000000  0.00000000  0.10095960  1.0
  Cl  Cl5  1  0.50000000  0.50000000  0.53936555  1.0
  Cl  Cl6  1  0.00000000  0.50000000  0.28977452  1.0
  Cl  Cl7  1  0.50000000  0.00000000  0.05787323  1.0
