# generated using pymatgen
data_NaCl
_symmetry_space_group_name_H-M   'P 1'
_cell_length_a   5.45896164
_cell_length_b   5.45896164
_cell_length_c   8.41209685
_cell_angle_alpha   90.00000000
_cell_angle_beta   90.00000000
_cell_angle_gamma   90.00000000
_symmetry_Int_Tables_number   1
_chemical_formula_structural   NaCl
_chemical_formula_sum   'Na4 Cl4'
_cell_volume   250.68269167
_cell_formula_units_Z   4
loop_
 _symmetry_equiv_pos_site_id
 _symmetry_equiv_pos_as_xyz
  1  'x, y, z'
loop_
 _atom_site_type_symbol
 _atom_site_label
 _atom_site_symmetry_multiplicity
 _atom_site_fract_x
 _atom_site_fract_y
 _atom_site_fract_z
 _atom_site_occupancy
  Na  Na0  1  0.12573282  0.06155256  0.39393074  1.0
  Na  Na1  1  0.83172288  0.13101945  0.98109440  1.0
  Na  Na2  1  0.34309131  0.64740661  0.82440886  1.0
  Na  Na3  1  0.13359625  0.02601373  0.76521774  1.0
  Cl  Cl4  1  0.23928820  0.90685675  0.19143274  1.0
  Cl  Cl5  1  0.35700461  0.38715125  0.03453346  1.0
  Cl  Cl6  1  0.80392339  0.83334972  0.74775276  1.0
  Cl  Cl7  1  0.27274942  0.21784587  0.36782907  1.0
