# generated using pymatgen
data_NaCl
_symmetry_space_group_name_H-M   'P 1'
_cell_length_a   5.11263757
_cell_length_b   6.98879166
_cell_length_c   7.47642892
_cell_angle_alpha   90.00000000
_cell_angle_beta   88.16080516
_cell_angle_gamma   90.00000000
_symmetry_Int_Tables_number   1
_chemical_formula_structural   NaCl
_chemical_formula_sum   'Na4 Cl4'
_cell_volume   267.00384822
_cell_formula_units_Z   4
loop_
 _symmetry_equiv_pos_site_id
 _symmetry_equiv_pos_as_xyz
  1  'x, y, z'
loop_
 _atom_site_type_symbol
 _atom_site_label
 _atom_site_symmetry_multiplicity
 _atom_site_fract_x
 _atom_site_fract_y
 _atom_site_fract_z
 _atom_site_occupancy
  Na  Na0  1  0.62330154  0.30439497  0.66550787  1.0
  Na  Na1  1  0.71496212  0.64056354  0.74024625  1.0
  Na  Na2  1  0.16740929  0.35927742  0.19983098  1.0
  Na  Na3  1  0.47938529  0.46994865  0.88202459  1.0
  Cl  Cl4  1  0.10393072  0.29167055  0.04522955  1.0
  Cl  Cl5  1  0.46134162  0.39320403  0.08221021  1.0
  Cl  Cl6  1  0.91963980  0.78609216  0.99983788  1.0
  Cl  Cl7  1  0.32757438  0.39573373  0.50020109  1.0
