# generated using pymatgen
data_NaCl
_symmetry_space_group_name_H-M   'P 1'
_cell_length_a   4.33184356
_cell_length_b   4.33184356
_cell_length_c   4.33184356
_cell_angle_alpha   90.00000000
_cell_angle_beta   90.00000000
_cell_angle_gamma   90.00000000
_symmetry_Int_Tables_number   1
_chemical_formula_structural   NaCl
_chemical_formula_sum   'Na4 Cl4'
_cell_volume   81.28647532
_cell_formula_units_Z   4
loop_
 _symmetry_equiv_pos_site_id
 _symmetry_equiv_pos_as_xyz
  1  'x, y, z'
loop_
 _atom_site_type_symbol
 _atom_site_label
 _atom_site_symmetry_multiplicity
 _atom_site_fract_x
 _atom_site_fract_y
 _atom_site_fract_z
 _atom_site_occupancy
  Na  Na0  1  0.71718902  0.71718902  0.71718902  1.0
  Na  Na1  1  0.62045893  0.12045893  0.37954107  1.0
  Na  Na2  1  0.95572521  0.54427479  0.45572521  1.0
  Na  Na3  1  0.25427626  0.74572374  0.24572374  1.0
  Cl  Cl4  1  0.38687469  0.38687469  0.38687469  1.0
  Cl  Cl5  1  0.29839823  0.79839823  0.70160177  1.0
  Cl  Cl6  1  0.14986130  0.35013870  0.64986130  1.0
  Cl  Cl7  1  0.93510746  0.06489254  0.56489254  1.0
