# generated using pymatgen
data_NaCl
_symmetry_space_group_name_H-M   'P 1'
_cell_length_a   7.17949799
_cell_length_b   7.17949799
_cell_length_c   3.79564722
_cell_angle_alpha   90.00000000
_cell_angle_beta   90.00000000
_cell_angle_gamma   90.00000000
_symmetry_Int_Tables_number   1
_chemical_formula_structural   NaCl
_chemical_formula_sum   'Na4 Cl4'
_cell_volume   195.64736240
_cell_formula_units_Z   4
loop_
 _symmetry_equiv_pos_site_id
 _symmetry_equiv_pos_as_xyz
  1  'x, y, z'
loop_
 _atom_site_type_symbol
 _atom_site_label
 _atom_site_symmetry_multiplicity
 _atom_site_fract_x
 _atom_site_fract_y
 _atom_site_fract_z
 _atom_site_occupancy
  Na  Na0  1  0.35873387  0.50000000  0.32499310  1.0
  Na  Na1  1  0.12952622  0.50000000  0.56656855  1.0
  Na  Na2  1  0.50000000  0.50862987  0.79049055  1.0
  Na  Na3  1  0.50000000  0.32667408  0.35973656  1.0
  Cl  Cl4  1  0.15533593  0.15533593  0.18412471  1.0
  Cl  Cl5  1  0.41214273  0.41214273  0.53546906  1.0
  Cl  Cl6  1  0.02726307  0.97273693  0.95080893  1.0
  Cl  Cl7  1  0.62374640  0.37625360  0.13614675  1.0
