# generated using pymatgen
data_NaCl
_symmetry_space_group_name_H-M   'P 1'
_cell_length_a   4.45956703
_cell_length_b   7.97256216
_cell_length_c   6.58873881
_cell_angle_alpha   90.00000000
_cell_angle_beta   84.93913571
_cell_angle_gamma   90.00000000
_symmetry_Int_Tables_number   1
_chemical_formula_structural   NaCl
_chemical_formula_sum   'Na4 Cl4'
_cell_volume   233.34393560
_cell_formula_units_Z   4
loop_
 _symmetry_equiv_pos_site_id
 _symmetry_equiv_pos_as_xyz
  1  'x, y, z'
loop_
 _atom_site_type_symbol
 _atom_site_label
 _atom_site_symmetry_multiplicity
 _atom_site_fract_x
 _atom_site_fract_y
 _atom_site_fract_z
 _atom_site_occupancy
  Na  Na0  1  0.50800411  0.20785424  0.60473717  1.0
  Na  Na1  1  0.24687353  0.78086858  0.80882851  1.0
  Na  Na2  1  0.65610046  0.84620782  0.18060791  1.0
  Na  Na3  1  0.01895013  0.53242186  0.54241858  1.0
  Cl  Cl4  1  0.17686497  0.36925893  0.06902466  1.0
  Cl  Cl5  1  0.58071135  0.14062358  0.41511381  1.0
  Cl  Cl6  1  0.56389189  0.25012838  0.99815047  1.0
  Cl  Cl7  1  0.22469112  0.71158199  0.96601283  1.0
