# generated using pymatgen
data_NaCl
_symmetry_space_group_name_H-M   'P 1'
_cell_length_a   4.87974764
_cell_length_b   6.80379289
_cell_length_c   9.10611226
_cell_angle_alpha   90.00000000
_cell_angle_beta   73.28608350
_cell_angle_gamma   90.00000000
_symmetry_Int_Tables_number   1
_chemical_formula_structural   NaCl
_chemical_formula_sum   'Na4 Cl4'
_cell_volume   289.55750050
_cell_formula_units_Z   4
loop_
 _symmetry_equiv_pos_site_id
 _symmetry_equiv_pos_as_xyz
  1  'x, y, z'
loop_
 _atom_site_type_symbol
 _atom_site_label
 _atom_site_symmetry_multiplicity
 _atom_site_fract_x
 _atom_site_fract_y
 _atom_site_fract_z
 _atom_site_occupancy
  Na  Na0  1  0.00000000  0.30374383  0.25000000  1.0
  Na  Na1  1  0.00000000  0.02407108  0.75000000  1.0
  Na  Na2  1  0.50000000  0.66681203  0.25000000  1.0
  Na  Na3  1  0.50000000  0.99970014  0.75000000  1.0
  Cl  Cl4  1  0.17370937  0.70477021  0.22543543  1.0
  Cl  Cl5  1  0.66459914  0.72666836  0.09937018  1.0
  Cl  Cl6  1  0.29817107  0.64543831  0.13401518  1.0
  Cl  Cl7  1  0.60474946  0.85674184  0.51830175  1.0
