# generated using pymatgen
data_NaCl
_symmetry_space_group_name_H-M   'P 1'
_cell_length_a   6.03945468
_cell_length_b   6.03945468
_cell_length_c   8.67727585
_cell_angle_alpha   90.00000000
_cell_angle_beta   90.00000000
_cell_angle_gamma   90.00000000
_symmetry_Int_Tables_number   1
_chemical_formula_structural   NaCl
_chemical_formula_sum   'Na4 Cl4'
_cell_volume   316.50374797
_cell_formula_units_Z   4
loop_
 _symmetry_equiv_pos_site_id
 _symmetry_equiv_pos_as_xyz
  1  'x, y, z'
loop_
 _atom_site_type_symbol
 _atom_site_label
 _atom_site_symmetry_multiplicity
 _atom_site_fract_x
 _atom_site_fract_y
 _atom_site_fract_z
 _atom_site_occupancy
  Na  Na0  1  0.61308440  0.61308440  0.00000000  1.0
  Na  Na1  1  0.31330409  0.31330409  0.50000000  1.0
  Na  Na2  1  0.87196830  0.12803170  0.25000000  1.0
  Na  Na3  1  0.49718148  0.50281852  0.75000000  1.0
  Cl  Cl4  1  0.04540785  0.04540785  0.00000000  1.0
  Cl  Cl5  1  0.58911419  0.58911419  0.50000000  1.0
  Cl  Cl6  1  0.04850443  0.95149557  0.25000000  1.0
  Cl  Cl7  1  0.33019599  0.66980401  0.75000000  1.0
