# generated using pymatgen
data_NaCl
_symmetry_space_group_name_H-M   'P 1'
_cell_length_a   6.34056024
_cell_length_b   4.77668536
_cell_length_c   4.06716120
_cell_angle_alpha   90.00000000
_cell_angle_beta   90.00000000
_cell_angle_gamma   90.00000000
_symmetry_Int_Tables_number   1
_chemical_formula_structural   NaCl
_chemical_formula_sum   'Na4 Cl4'
_cell_volume   123.18154704
_cell_formula_units_Z   4
loop_
 _symmetry_equiv_pos_site_id
 _symmetry_equiv_pos_as_xyz
  1  'x, y, z'
loop_
 _atom_site_type_symbol
 _atom_site_label
 _atom_site_symmetry_multiplicity
 _atom_site_fract_x
 _atom_site_fract_y
 _atom_site_fract_z
 _atom_site_occupancy
  Na  Na0  1  0.42505236  0.25162999  0.48928536  1.0
  Na  Na1  1  0.02690144  0.29664143  0.14709400  1.0
  Na  Na2  1  0.20541676  0.57152385  0.01829812  1.0
  Na  Na3  1  0.56444628  0.67737734  0.77722887  1.0
  Cl  Cl4  1  0.25720263  0.86432791  0.05527421  1.0
  Cl  Cl5  1  0.48962986  0.45000348  0.01344979  1.0
  Cl  Cl6  1  0.28851597  0.18573822  0.99762503  1.0
  Cl  Cl7  1  0.71997983  0.76230459  0.51601831  1.0
