# generated using pymatgen
data_NaCl
_symmetry_space_group_name_H-M   'P 1'
_cell_length_a   6.27719125
_cell_length_b   5.64537912
_cell_length_c   9.08552759
_cell_angle_alpha   90.00000000
_cell_angle_beta   90.00000000
_cell_angle_gamma   90.00000000
_symmetry_Int_Tables_number   1
_chemical_formula_structural   NaCl
_chemical_formula_sum   'Na4 Cl4'
_cell_volume   321.96497158
_cell_formula_units_Z   4
loop_
 _symmetry_equiv_pos_site_id
 _symmetry_equiv_pos_as_xyz
  1  'x, y, z'
loop_
 _atom_site_type_symbol
 _atom_site_label
 _atom_site_symmetry_multiplicity
 _atom_site_fract_x
 _atom_site_fract_y
 _atom_site_fract_z
 _atom_site_occupancy
  Na  Na0  1  0.22824669  0.13981944  0.77140816  1.0
  Na  Na1  1  0.73309465  0.05719294  0.98672101  1.0
  Na  Na2  1  0.19227170  0.59992448  0.54442927  1.0
  Na  Na3  1  0.21424322  0.00196765  0.59585227  1.0
  Cl  Cl4  1  0.28103949  0.84998525  0.16923599  1.0
  Cl  Cl5  1  0.36340469  0.22385207  0.71288176  1.0
  Cl  Cl6  1  0.30732292  0.69280449  0.26583897  1.0
  Cl  Cl7  1  0.57813132  0.34072190  0.15770990  1.0
