# generated using pymatgen
data_NaCl
_symmetry_space_group_name_H-M   'P 1'
_cell_length_a   7.27149493
_cell_length_b   7.21242460
_cell_length_c   3.26813079
_cell_angle_alpha   90.00000000
_cell_angle_beta   103.08041819
_cell_angle_gamma   90.00000000
_symmetry_Int_Tables_number   1
_chemical_formula_structural   NaCl
_chemical_formula_sum   'Na4 Cl4'
_cell_volume   166.95028875
_cell_formula_units_Z   4
loop_
 _symmetry_equiv_pos_site_id
 _symmetry_equiv_pos_as_xyz
  1  'x, y, z'
loop_
 _atom_site_type_symbol
 _atom_site_label
 _atom_site_symmetry_multiplicity
 _atom_site_fract_x
 _atom_site_fract_y
 _atom_site_fract_z
 _atom_site_occupancy
  Na  Na0  1  0.35007637  0.21350958  0.58181638  1.0
  Na  Na1  1  0.00197480  0.20398703  0.44258581  1.0
  Na  Na2  1  0.76146639  0.62091018  0.09922130  1.0
  Na  Na3  1  0.07947387  0.64136228  0.77743786  1.0
  Cl  Cl4  1  0.47680653  0.82484950  0.11391080  1.0
  Cl  Cl5  1  0.47976432  0.05967225  0.58564756  1.0
  Cl  Cl6  1  0.72436907  0.31651608  0.96486221  1.0
  Cl  Cl7  1  0.22608574  0.72370819  0.91301008  1.0
