# generated using pymatgen
data_NaCl
_symmetry_space_group_name_H-M   'P 1'
_cell_length_a   8.72880543
_cell_length_b   12.52561358
_cell_length_c   3.99757748
_cell_angle_alpha   90.00000000
_cell_angle_beta   156.33125771
_cell_angle_gamma   90.00000000
_symmetry_Int_Tables_number   1
_chemical_formula_structural   NaCl
_chemical_formula_sum   'Na4 Cl4'
_cell_volume   175.46083934
_cell_formula_units_Z   4
loop_
 _symmetry_equiv_pos_site_id
 _symmetry_equiv_pos_as_xyz
  1  'x, y, z'
loop_
 _atom_site_type_symbol
 _atom_site_label
 _atom_site_symmetry_multiplicity
 _atom_site_fract_x
 _atom_site_fract_y
 _atom_site_fract_z
 _atom_site_occupancy
  Na  Na0  1  0.29699886  0.21957782  0.27862179  1.0
  Na  Na1  1  0.19285581  0.82766107  0.95578387  1.0
  Na  Na2  1  0.39522678  0.09279564  0.92321894  1.0
  Na  Na3  1  0.65229462  0.89699321  0.87104226  1.0
  Cl  Cl4  1  0.00000000  0.00000000  0.00000000  1.0
  Cl  Cl5  1  0.00000000  0.00000000  0.50000000  1.0
  Cl  Cl6  1  0.00000000  0.52573339  0.25000000  1.0
  Cl  Cl7  1  0.00000000  0.77645027  0.75000000  1.0
