# generated using pymatgen
data_NaCl
_symmetry_space_group_name_H-M   'P 1'
_cell_length_a   2.01163786
_cell_length_b   9.18548484
_cell_length_c   13.25053108
_cell_angle_alpha   90.00000000
_cell_angle_beta   111.95609964
_cell_angle_gamma   90.00000000
_symmetry_Int_Tables_number   1
_chemical_formula_structural   NaCl
_chemical_formula_sum   'Na4 Cl4'
_cell_volume   227.08336758
_cell_formula_units_Z   4
loop_
 _symmetry_equiv_pos_site_id
 _symmetry_equiv_pos_as_xyz
  1  'x, y, z'
loop_
 _atom_site_type_symbol
 _atom_site_label
 _atom_site_symmetry_multiplicity
 _atom_site_fract_x
 _atom_site_fract_y
 _atom_site_fract_z
 _atom_site_occupancy
  Na  Na0  1  0.96587383  0.56447317  0.67419113  1.0
  Na  Na1  1  0.04707245  0.20500966  0.99775045  1.0
  Na  Na2  1  0.75118778  0.98207346  0.94794286  1.0
  Na  Na3  1  0.75308410  0.38341433  0.66533537  1.0
  Cl  Cl4  1  0.43947478  0.60701913  0.39708003  1.0
  Cl  Cl5  1  0.86480570  0.25165763  0.60708367  1.0
  Cl  Cl6  1  0.24762007  0.83116365  0.33088870  1.0
  Cl  Cl7  1  0.35858442  0.07873988  0.74660146  1.0
