# generated using pymatgen
data_NaCl
_symmetry_space_group_name_H-M   'P 1'
_cell_length_a   6.16563021
_cell_length_b   10.30534961
_cell_length_c   4.62733284
_cell_angle_alpha   90.00000000
_cell_angle_beta   90.00000000
_cell_angle_gamma   90.00000000
_symmetry_Int_Tables_number   1
_chemical_formula_structural   NaCl
_chemical_formula_sum   'Na4 Cl4'
_cell_volume   294.01598508
_cell_formula_units_Z   4
loop_
 _symmetry_equiv_pos_site_id
 _symmetry_equiv_pos_as_xyz
  1  'x, y, z'
loop_
 _atom_site_type_symbol
 _atom_site_label
 _atom_site_symmetry_multiplicity
 _atom_site_fract_x
 _atom_site_fract_y
 _atom_site_fract_z
 _atom_site_occupancy
  Na  Na0  1  0.41903759  0.00000000  0.35587302  1.0
  Na  Na1  1  0.15021470  0.00000000  0.42224360  1.0
  Na  Na2  1  0.21801326  0.50000000  0.18518086  1.0
  Na  Na3  1  0.61394832  0.50000000  0.24433398  1.0
  Cl  Cl4  1  0.00000000  0.63056127  0.10669298  1.0
  Cl  Cl5  1  0.00000000  0.29155146  0.58813286  1.0
  Cl  Cl6  1  0.50000000  0.95956474  0.86699176  1.0
  Cl  Cl7  1  0.50000000  0.20032310  0.00027903  1.0
