# generated using pymatgen
data_NaCl
_symmetry_space_group_name_H-M   'P 1'
_cell_length_a   5.96321374
_cell_length_b   10.24656177
_cell_length_c   6.33155096
_cell_angle_alpha   90.00000000
_cell_angle_beta   90.00000000
_cell_angle_gamma   90.00000000
_symmetry_Int_Tables_number   1
_chemical_formula_structural   NaCl
_chemical_formula_sum   'Na4 Cl4'
_cell_volume   386.87319956
_cell_formula_units_Z   4
loop_
 _symmetry_equiv_pos_site_id
 _symmetry_equiv_pos_as_xyz
  1  'x, y, z'
loop_
 _atom_site_type_symbol
 _atom_site_label
 _atom_site_symmetry_multiplicity
 _atom_site_fract_x
 _atom_site_fract_y
 _atom_site_fract_z
 _atom_site_occupancy
  Na  Na0  1  0.38765837  0.14706744  0.73308669  1.0
  Na  Na1  1  0.10795754  0.51924862  0.91919121  1.0
  Na  Na2  1  0.27152062  0.13454285  0.07357058  1.0
  Na  Na3  1  0.56273570  0.01825344  0.95635287  1.0
  Cl  Cl4  1  0.16779153  0.52648905  0.19337304  1.0
  Cl  Cl5  1  0.47027964  0.28720545  0.03214310  1.0
  Cl  Cl6  1  0.09723663  0.67788821  0.79439368  1.0
  Cl  Cl7  1  0.80453557  0.14052177  0.52207192  1.0
