# generated using pymatgen
data_NaCl
_symmetry_space_group_name_H-M   'P 1'
_cell_length_a   7.06487309
_cell_length_b   8.54189741
_cell_length_c   4.90900216
_cell_angle_alpha   90.00000000
_cell_angle_beta   90.00000000
_cell_angle_gamma   90.00000000
_symmetry_Int_Tables_number   1
_chemical_formula_structural   NaCl
_chemical_formula_sum   'Na4 Cl4'
_cell_volume   296.24562077
_cell_formula_units_Z   4
loop_
 _symmetry_equiv_pos_site_id
 _symmetry_equiv_pos_as_xyz
  1  'x, y, z'
loop_
 _atom_site_type_symbol
 _atom_site_label
 _atom_site_symmetry_multiplicity
 _atom_site_fract_x
 _atom_site_fract_y
 _atom_site_fract_z
 _atom_site_occupancy
  Na  Na0  1  0.42103630  0.83874238  0.42117359  1.0
  Na  Na1  1  0.10434478  0.30240704  0.47280006  1.0
  Na  Na2  1  0.86409222  0.12977879  0.61355196  1.0
  Na  Na3  1  0.09216842  0.08910108  0.26525559  1.0
  Cl  Cl4  1  0.00000000  0.50000000  0.17452955  1.0
  Cl  Cl5  1  0.00000000  0.50000000  0.89150612  1.0
  Cl  Cl6  1  0.50000000  0.50000000  0.42763388  1.0
  Cl  Cl7  1  0.50000000  0.50000000  0.65335820  1.0
