# generated using pymatgen
data_NaCl
_symmetry_space_group_name_H-M   'P 1'
_cell_length_a   2.01567830
_cell_length_b   9.91368375
_cell_length_c   16.79579502
_cell_angle_alpha   90.00000000
_cell_angle_beta   90.80767119
_cell_angle_gamma   90.00000000
_symmetry_Int_Tables_number   1
_chemical_formula_structural   NaCl
_chemical_formula_sum   'Na4 Cl4'
_cell_volume   335.59361984
_cell_formula_units_Z   4
loop_
 _symmetry_equiv_pos_site_id
 _symmetry_equiv_pos_as_xyz
  1  'x, y, z'
loop_
 _atom_site_type_symbol
 _atom_site_label
 _atom_site_symmetry_multiplicity
 _atom_site_fract_x
 _atom_site_fract_y
 _atom_site_fract_z
 _atom_site_occupancy
  Na  Na0  1  0.28807418  0.20138106  0.40843851  1.0
  Na  Na1  1  0.84139839  0.60565125  0.45839178  1.0
  Na  Na2  1  0.21017331  0.39268624  0.16237035  1.0
  Na  Na3  1  0.00663889  0.42268675  0.83309237  1.0
  Cl  Cl4  1  0.17617398  0.73501799  0.20518157  1.0
  Cl  Cl5  1  0.44177720  0.29063820  0.33805468  1.0
  Cl  Cl6  1  0.03749831  0.73580248  0.73451224  1.0
  Cl  Cl7  1  0.29135468  0.28679846  0.20413239  1.0
