# generated using pymatgen
data_NaCl
_symmetry_space_group_name_H-M   'P 1'
_cell_length_a   3.84563437
_cell_length_b   8.99725599
_cell_length_c   8.32187461
_cell_angle_alpha   90.00000000
_cell_angle_beta   85.42609530
_cell_angle_gamma   90.00000000
_symmetry_Int_Tables_number   1
_chemical_formula_structural   NaCl
_chemical_formula_sum   'Na4 Cl4'
_cell_volume   287.02117074
_cell_formula_units_Z   4
loop_
 _symmetry_equiv_pos_site_id
 _symmetry_equiv_pos_as_xyz
  1  'x, y, z'
loop_
 _atom_site_type_symbol
 _atom_site_label
 _atom_site_symmetry_multiplicity
 _atom_site_fract_x
 _atom_site_fract_y
 _atom_site_fract_z
 _atom_site_occupancy
  Na  Na0  1  0.00000000  0.16816500  0.25000000  1.0
  Na  Na1  1  0.00000000  0.67902392  0.75000000  1.0
  Na  Na2  1  0.50000000  0.96738210  0.25000000  1.0
  Na  Na3  1  0.50000000  0.99894969  0.75000000  1.0
  Cl  Cl4  1  0.10538381  0.42649076  0.00094625  1.0
  Cl  Cl5  1  0.58639451  0.59285494  0.83511832  1.0
  Cl  Cl6  1  0.60633933  0.63422869  0.00103972  1.0
  Cl  Cl7  1  0.79262421  0.80212253  0.52013505  1.0
