# generated using pymatgen
data_NaCl
_symmetry_space_group_name_H-M   'P 1'
_cell_length_a   6.05612344
_cell_length_b   8.62644733
_cell_length_c   7.45612412
_cell_angle_alpha   90.00000000
_cell_angle_beta   90.00000000
_cell_angle_gamma   90.00000000
_symmetry_Int_Tables_number   1
_chemical_formula_structural   NaCl
_chemical_formula_sum   'Na4 Cl4'
_cell_volume   389.52902396
_cell_formula_units_Z   4
loop_
 _symmetry_equiv_pos_site_id
 _symmetry_equiv_pos_as_xyz
  1  'x, y, z'
loop_
 _atom_site_type_symbol
 _atom_site_label
 _atom_site_symmetry_multiplicity
 _atom_site_fract_x
 _atom_site_fract_y
 _atom_site_fract_z
 _atom_site_occupancy
  Na  Na0  1  0.25000000  0.10177460  0.64275509  1.0
  Na  Na1  1  0.75000000  0.04200150  0.66866131  1.0
  Na  Na2  1  0.25000000  0.74205472  0.05254060  1.0
  Na  Na3  1  0.75000000  0.98112046  0.48722049  1.0
  Cl  Cl4  1  0.24866882  0.90031520  0.00051978  1.0
  Cl  Cl5  1  0.54918070  0.47468060  0.40686766  1.0
  Cl  Cl6  1  0.28914848  0.60910050  0.99450828  1.0
  Cl  Cl7  1  0.69873440  0.31815892  0.15698475  1.0
