# generated using pymatgen
data_NaCl
_symmetry_space_group_name_H-M   'P 1'
_cell_length_a   6.54730597
_cell_length_b   9.58384251
_cell_length_c   10.08313636
_cell_angle_alpha   90.00000000
_cell_angle_beta   159.98426219
_cell_angle_gamma   90.00000000
_symmetry_Int_Tables_number   1
_chemical_formula_structural   NaCl
_chemical_formula_sum   'Na4 Cl4'
_cell_volume   216.55949922
_cell_formula_units_Z   4
loop_
 _symmetry_equiv_pos_site_id
 _symmetry_equiv_pos_as_xyz
  1  'x, y, z'
loop_
 _atom_site_type_symbol
 _atom_site_label
 _atom_site_symmetry_multiplicity
 _atom_site_fract_x
 _atom_site_fract_y
 _atom_site_fract_z
 _atom_site_occupancy
  Na  Na0  1  0.23698563  0.50000000  0.41582362  1.0
  Na  Na1  1  0.82262573  0.50000000  0.41818547  1.0
  Na  Na2  1  0.62665534  0.80071360  0.03606695  1.0
  Na  Na3  1  0.75722799  0.49353085  0.59248261  1.0
  Cl  Cl4  1  0.14426829  0.78937424  0.18841888  1.0
  Cl  Cl5  1  0.20509717  0.16753846  0.49415854  1.0
  Cl  Cl6  1  0.70678801  0.38117879  0.83471421  1.0
  Cl  Cl7  1  0.43271270  0.56977686  0.13437543  1.0
