# generated using pymatgen
data_NaCl
_symmetry_space_group_name_H-M   'P 1'
_cell_length_a   6.92545900
_cell_length_b   10.36725161
_cell_length_c   3.02169786
_cell_angle_alpha   90.00000000
_cell_angle_beta   73.31158513
_cell_angle_gamma   90.00000000
_symmetry_Int_Tables_number   1
_chemical_formula_structural   NaCl
_chemical_formula_sum   'Na4 Cl4'
_cell_volume   207.81390658
_cell_formula_units_Z   4
loop_
 _symmetry_equiv_pos_site_id
 _symmetry_equiv_pos_as_xyz
  1  'x, y, z'
loop_
 _atom_site_type_symbol
 _atom_site_label
 _atom_site_symmetry_multiplicity
 _atom_site_fract_x
 _atom_site_fract_y
 _atom_site_fract_z
 _atom_site_occupancy
  Na  Na0  1  0.29580691  0.06317438  0.46263709  1.0
  Na  Na1  1  0.15001568  0.17789053  0.44540037  1.0
  Na  Na2  1  0.81128915  0.61157168  0.02756800  1.0
  Na  Na3  1  0.17362660  0.55963162  0.68856317  1.0
  Cl  Cl4  1  0.16682119  0.71550417  0.26639412  1.0
  Cl  Cl5  1  0.66921997  0.25149660  0.54107817  1.0
  Cl  Cl6  1  0.74650690  0.30673198  0.95298710  1.0
  Cl  Cl7  1  0.28509658  0.70028190  0.85445058  1.0
