# generated using pymatgen
data_NaCl
_symmetry_space_group_name_H-M   'P 1'
_cell_length_a   4.29521878
_cell_length_b   9.66194041
_cell_length_c   8.14100705
_cell_angle_alpha   90.00000000
_cell_angle_beta   86.78850085
_cell_angle_gamma   90.00000000
_symmetry_Int_Tables_number   1
_chemical_formula_structural   NaCl
_chemical_formula_sum   'Na4 Cl4'
_cell_volume   337.32241229
_cell_formula_units_Z   4
loop_
 _symmetry_equiv_pos_site_id
 _symmetry_equiv_pos_as_xyz
  1  'x, y, z'
loop_
 _atom_site_type_symbol
 _atom_site_label
 _atom_site_symmetry_multiplicity
 _atom_site_fract_x
 _atom_site_fract_y
 _atom_site_fract_z
 _atom_site_occupancy
  Na  Na0  1  0.65668804  0.21772582  0.60274978  1.0
  Na  Na1  1  0.77054739  0.64056531  0.66151512  1.0
  Na  Na2  1  0.69207998  0.87725225  0.20456152  1.0
  Na  Na3  1  0.95006456  0.95386101  0.96723466  1.0
  Cl  Cl4  1  0.14281807  0.38348511  0.02739256  1.0
  Cl  Cl5  1  0.37236018  0.34845476  0.10686252  1.0
  Cl  Cl6  1  0.48749632  0.25767214  0.99975636  1.0
  Cl  Cl7  1  0.88057218  0.84344619  0.52056814  1.0
