# generated using pymatgen
data_NaCl
_symmetry_space_group_name_H-M   'P 1'
_cell_length_a   8.29316173
_cell_length_b   10.15836065
_cell_length_c   8.61447360
_cell_angle_alpha   90.00000000
_cell_angle_beta   148.36242829
_cell_angle_gamma   90.00000000
_symmetry_Int_Tables_number   1
_chemical_formula_structural   NaCl
_chemical_formula_sum   'Na4 Cl4'
_cell_volume   380.67529222
_cell_formula_units_Z   4
loop_
 _symmetry_equiv_pos_site_id
 _symmetry_equiv_pos_as_xyz
  1  'x, y, z'
loop_
 _atom_site_type_symbol
 _atom_site_label
 _atom_site_symmetry_multiplicity
 _atom_site_fract_x
 _atom_site_fract_y
 _atom_site_fract_z
 _atom_site_occupancy
  Na  Na0  1  0.16265157  0.29927788  0.40984200  1.0
  Na  Na1  1  0.88761656  0.34261135  0.45884937  1.0
  Na  Na2  1  0.25144988  0.21165696  0.11913845  1.0
  Na  Na3  1  0.32073271  0.31290429  0.39837898  1.0
  Cl  Cl4  1  0.12418442  0.87604864  0.14643799  1.0
  Cl  Cl5  1  0.23289284  0.16267205  0.53374046  1.0
  Cl  Cl6  1  0.06127416  0.97312403  0.95777488  1.0
  Cl  Cl7  1  0.01746955  0.17887841  0.58442894  1.0
