# generated using pymatgen
data_NaCl
_symmetry_space_group_name_H-M   'P 1'
_cell_length_a   9.45539774
_cell_length_b   13.29642262
_cell_length_c   3.00326132
_cell_angle_alpha   90.00000000
_cell_angle_beta   152.15832532
_cell_angle_gamma   90.00000000
_symmetry_Int_Tables_number   1
_chemical_formula_structural   NaCl
_chemical_formula_sum   'Na4 Cl4'
_cell_volume   176.34065322
_cell_formula_units_Z   4
loop_
 _symmetry_equiv_pos_site_id
 _symmetry_equiv_pos_as_xyz
  1  'x, y, z'
loop_
 _atom_site_type_symbol
 _atom_site_label
 _atom_site_symmetry_multiplicity
 _atom_site_fract_x
 _atom_site_fract_y
 _atom_site_fract_z
 _atom_site_occupancy
  Na  Na0  1  0.00000000  0.37069751  0.00000000  1.0
  Na  Na1  1  0.00000000  0.91795492  0.50000000  1.0
  Na  Na2  1  0.66030639  0.88189371  0.12949199  1.0
  Na  Na3  1  0.39657244  0.17792835  0.49960926  1.0
  Cl  Cl4  1  0.50000000  0.97759030  0.00000000  1.0
  Cl  Cl5  1  0.50000000  0.55219497  0.00000000  1.0
  Cl  Cl6  1  0.50000000  0.49909955  0.50000000  1.0
  Cl  Cl7  1  0.50000000  0.06471828  0.50000000  1.0
