# generated using pymatgen
data_NaCl
_symmetry_space_group_name_H-M   'P 1'
_cell_length_a   5.21333417
_cell_length_b   5.21333417
_cell_length_c   11.93389645
_cell_angle_alpha   90.00000000
_cell_angle_beta   90.00000000
_cell_angle_gamma   90.00000000
_symmetry_Int_Tables_number   1
_chemical_formula_structural   NaCl
_chemical_formula_sum   'Na4 Cl4'
_cell_volume   324.34961934
_cell_formula_units_Z   4
loop_
 _symmetry_equiv_pos_site_id
 _symmetry_equiv_pos_as_xyz
  1  'x, y, z'
loop_
 _atom_site_type_symbol
 _atom_site_label
 _atom_site_symmetry_multiplicity
 _atom_site_fract_x
 _atom_site_fract_y
 _atom_site_fract_z
 _atom_site_occupancy
  Na  Na0  1  0.28013356  0.00000000  0.70667800  1.0
  Na  Na1  1  0.13145234  0.00000000  0.44133531  1.0
  Na  Na2  1  0.00000000  0.83135450  0.58305594  1.0
  Na  Na3  1  0.00000000  0.22716948  0.01493958  1.0
  Cl  Cl4  1  0.00000000  0.50000000  0.09853716  1.0
  Cl  Cl5  1  0.50000000  0.00000000  0.94812044  1.0
  Cl  Cl6  1  0.50000000  0.50000000  0.82224228  1.0
  Cl  Cl7  1  0.50000000  0.50000000  0.60361618  1.0
