# generated using pymatgen
data_NaCl
_symmetry_space_group_name_H-M   'P 1'
_cell_length_a   5.00918286
_cell_length_b   7.75141320
_cell_length_c   2.91044002
_cell_angle_alpha   90.00000000
_cell_angle_beta   90.00000000
_cell_angle_gamma   90.00000000
_symmetry_Int_Tables_number   1
_chemical_formula_structural   NaCl
_chemical_formula_sum   'Na4 Cl4'
_cell_volume   113.00728148
_cell_formula_units_Z   4
loop_
 _symmetry_equiv_pos_site_id
 _symmetry_equiv_pos_as_xyz
  1  'x, y, z'
loop_
 _atom_site_type_symbol
 _atom_site_label
 _atom_site_symmetry_multiplicity
 _atom_site_fract_x
 _atom_site_fract_y
 _atom_site_fract_z
 _atom_site_occupancy
  Na  Na0  1  0.36522241  0.00298369  0.63719874  1.0
  Na  Na1  1  0.27603607  0.54363296  0.10994871  1.0
  Na  Na2  1  0.45043571  0.24091816  0.15273696  1.0
  Na  Na3  1  0.57419736  0.07489482  0.98939858  1.0
  Cl  Cl4  1  0.29145236  0.99876772  0.21326136  1.0
  Cl  Cl5  1  0.64908611  0.23469992  0.75378973  1.0
  Cl  Cl6  1  0.29526526  0.72587626  0.92183271  1.0
  Cl  Cl7  1  0.73562556  0.02780051  0.67747252  1.0
