# generated using pymatgen
data_NaCl
_symmetry_space_group_name_H-M   'P 1'
_cell_length_a   4.00033074
_cell_length_b   10.62071937
_cell_length_c   5.54039794
_cell_angle_alpha   90.00000000
_cell_angle_beta   90.00000000
_cell_angle_gamma   90.00000000
_symmetry_Int_Tables_number   1
_chemical_formula_structural   NaCl
_chemical_formula_sum   'Na4 Cl4'
_cell_volume   235.39150861
_cell_formula_units_Z   4
loop_
 _symmetry_equiv_pos_site_id
 _symmetry_equiv_pos_as_xyz
  1  'x, y, z'
loop_
 _atom_site_type_symbol
 _atom_site_label
 _atom_site_symmetry_multiplicity
 _atom_site_fract_x
 _atom_site_fract_y
 _atom_site_fract_z
 _atom_site_occupancy
  Na  Na0  1  0.00000000  0.35379246  0.49599070  1.0
  Na  Na1  1  0.00000000  0.00037390  0.03054669  1.0
  Na  Na2  1  0.50000000  0.41447219  0.11094609  1.0
  Na  Na3  1  0.50000000  0.47902366  0.80294553  1.0
  Cl  Cl4  1  0.00000000  0.84467046  0.12700105  1.0
  Cl  Cl5  1  0.00000000  0.35825218  0.90349121  1.0
  Cl  Cl6  1  0.50000000  0.82855282  0.93689779  1.0
  Cl  Cl7  1  0.50000000  0.33416290  0.62551768  1.0
