# generated using pymatgen
data_NaCl
_symmetry_space_group_name_H-M   'P 1'
_cell_length_a   3.72317954
_cell_length_b   3.72317954
_cell_length_c   9.01124627
_cell_angle_alpha   90.00000000
_cell_angle_beta   90.00000000
_cell_angle_gamma   90.00000000
_symmetry_Int_Tables_number   1
_chemical_formula_structural   NaCl
_chemical_formula_sum   'Na4 Cl4'
_cell_volume   124.91448952
_cell_formula_units_Z   4
loop_
 _symmetry_equiv_pos_site_id
 _symmetry_equiv_pos_as_xyz
  1  'x, y, z'
loop_
 _atom_site_type_symbol
 _atom_site_label
 _atom_site_symmetry_multiplicity
 _atom_site_fract_x
 _atom_site_fract_y
 _atom_site_fract_z
 _atom_site_occupancy
  Na  Na0  1  0.63048977  0.35396423  0.63956416  1.0
  Na  Na1  1  0.28977118  0.65414139  0.67971789  1.0
  Na  Na2  1  0.11318902  0.66934249  0.50500413  1.0
  Na  Na3  1  0.03581398  0.02688278  0.14269007  1.0
  Cl  Cl4  1  0.14561640  0.32858874  0.00100053  1.0
  Cl  Cl5  1  0.60796261  0.36948742  0.15364136  1.0
  Cl  Cl6  1  0.64299623  0.41443006  0.24887493  1.0
  Cl  Cl7  1  0.19043343  0.14957933  0.77558909  1.0
