# generated using pymatgen
data_NaCl
_symmetry_space_group_name_H-M   'P 1'
_cell_length_a   5.61120134
_cell_length_b   5.61120134
_cell_length_c   5.61120134
_cell_angle_alpha   90.00000000
_cell_angle_beta   90.00000000
_cell_angle_gamma   90.00000000
_symmetry_Int_Tables_number   1
_chemical_formula_structural   NaCl
_chemical_formula_sum   'Na4 Cl4'
_cell_volume   176.67193137
_cell_formula_units_Z   4
loop_
 _symmetry_equiv_pos_site_id
 _symmetry_equiv_pos_as_xyz
  1  'x, y, z'
loop_
 _atom_site_type_symbol
 _atom_site_label
 _atom_site_symmetry_multiplicity
 _atom_site_fract_x
 _atom_site_fract_y
 _atom_site_fract_z
 _atom_site_occupancy
  Na  Na0  1  0.29013179  0.29013179  0.29013179  1.0
  Na  Na1  1  0.65662619  0.15662619  0.34337381  1.0
  Na  Na2  1  0.18305303  0.31694697  0.68305303  1.0
  Na  Na3  1  0.27232140  0.72767860  0.22767860  1.0
  Cl  Cl4  1  0.17004484  0.17004484  0.17004484  1.0
  Cl  Cl5  1  0.10591755  0.60591755  0.89408245  1.0
  Cl  Cl6  1  0.35533427  0.14466573  0.85533427  1.0
  Cl  Cl7  1  0.14161214  0.85838786  0.35838786  1.0
