# generated using pymatgen
data_NaCl
_symmetry_space_group_name_H-M   'P 1'
_cell_length_a   7.68581698
_cell_length_b   9.46387429
_cell_length_c   3.33234537
_cell_angle_alpha   90.00000000
_cell_angle_beta   99.54612515
_cell_angle_gamma   90.00000000
_symmetry_Int_Tables_number   1
_chemical_formula_structural   NaCl
_chemical_formula_sum   'Na4 Cl4'
_cell_volume   239.03035094
_cell_formula_units_Z   4
loop_
 _symmetry_equiv_pos_site_id
 _symmetry_equiv_pos_as_xyz
  1  'x, y, z'
loop_
 _atom_site_type_symbol
 _atom_site_label
 _atom_site_symmetry_multiplicity
 _atom_site_fract_x
 _atom_site_fract_y
 _atom_site_fract_z
 _atom_site_occupancy
  Na  Na0  1  0.78136326  0.26474625  0.66588378  1.0
  Na  Na1  1  0.90650591  0.49892400  0.14916051  1.0
  Na  Na2  1  0.03123691  0.12079386  0.10961074  1.0
  Na  Na3  1  0.77461324  0.99512090  0.55855342  1.0
  Cl  Cl4  1  0.48829403  0.65926321  0.22077270  1.0
  Cl  Cl5  1  0.13947879  0.00151378  0.36482442  1.0
  Cl  Cl6  1  0.61291566  0.02329716  0.67073957  1.0
  Cl  Cl7  1  0.47407876  0.53296994  0.80258895  1.0
