# generated using pymatgen
data_NaCl
_symmetry_space_group_name_H-M   'P 1'
_cell_length_a   5.75344617
_cell_length_b   7.57941563
_cell_length_c   8.98642946
_cell_angle_alpha   90.00000000
_cell_angle_beta   90.00000000
_cell_angle_gamma   90.00000000
_symmetry_Int_Tables_number   1
_chemical_formula_structural   NaCl
_chemical_formula_sum   'Na4 Cl4'
_cell_volume   391.87805760
_cell_formula_units_Z   4
loop_
 _symmetry_equiv_pos_site_id
 _symmetry_equiv_pos_as_xyz
  1  'x, y, z'
loop_
 _atom_site_type_symbol
 _atom_site_label
 _atom_site_symmetry_multiplicity
 _atom_site_fract_x
 _atom_site_fract_y
 _atom_site_fract_z
 _atom_site_occupancy
  Na  Na0  1  0.45299998  0.00000000  0.40017010  1.0
  Na  Na1  1  0.18173075  0.00000000  0.45744317  1.0
  Na  Na2  1  0.24543327  0.50000000  0.62798636  1.0
  Na  Na3  1  0.52485041  0.50000000  0.74775521  1.0
  Cl  Cl4  1  0.00000000  0.82624764  0.14115269  1.0
  Cl  Cl5  1  0.00000000  0.23778479  0.62526314  1.0
  Cl  Cl6  1  0.50000000  0.80994047  0.40250338  1.0
  Cl  Cl7  1  0.50000000  0.23201025  0.63858498  1.0
