# generated using pymatgen
data_NaCl
_symmetry_space_group_name_H-M   'P 1'
_cell_length_a   8.85536183
_cell_length_b   8.55987901
_cell_length_c   2.96922539
_cell_angle_alpha   90.00000000
_cell_angle_beta   90.00000000
_cell_angle_gamma   90.00000000
_symmetry_Int_Tables_number   1
_chemical_formula_structural   NaCl
_chemical_formula_sum   'Na4 Cl4'
_cell_volume   225.06973671
_cell_formula_units_Z   4
loop_
 _symmetry_equiv_pos_site_id
 _symmetry_equiv_pos_as_xyz
  1  'x, y, z'
loop_
 _atom_site_type_symbol
 _atom_site_label
 _atom_site_symmetry_multiplicity
 _atom_site_fract_x
 _atom_site_fract_y
 _atom_site_fract_z
 _atom_site_occupancy
  Na  Na0  1  0.32294242  0.61729128  0.42816983  1.0
  Na  Na1  1  0.11479956  0.15780404  0.47041384  1.0
  Na  Na2  1  0.38052782  0.55021353  0.03914002  1.0
  Na  Na3  1  0.67016340  0.52410762  0.09734357  1.0
  Cl  Cl4  1  0.01832708  0.73055587  0.06615175  1.0
  Cl  Cl5  1  0.86085280  0.36777781  0.40320760  1.0
  Cl  Cl6  1  0.30344828  0.18027379  0.84358869  1.0
  Cl  Cl7  1  0.86868553  0.83541037  0.08948261  1.0
