# generated using pymatgen
data_NaCl
_symmetry_space_group_name_H-M   'P 1'
_cell_length_a   6.25840992
_cell_length_b   11.01100957
_cell_length_c   4.54481859
_cell_angle_alpha   90.00000000
_cell_angle_beta   144.93275924
_cell_angle_gamma   90.00000000
_symmetry_Int_Tables_number   1
_chemical_formula_structural   NaCl
_chemical_formula_sum   'Na4 Cl4'
_cell_volume   179.93928261
_cell_formula_units_Z   4
loop_
 _symmetry_equiv_pos_site_id
 _symmetry_equiv_pos_as_xyz
  1  'x, y, z'
loop_
 _atom_site_type_symbol
 _atom_site_label
 _atom_site_symmetry_multiplicity
 _atom_site_fract_x
 _atom_site_fract_y
 _atom_site_fract_z
 _atom_site_occupancy
  Na  Na0  1  0.36431266  0.12727028  0.11317039  1.0
  Na  Na1  1  0.12938921  0.29202573  0.51772831  1.0
  Na  Na2  1  0.27520908  0.33334260  0.10065073  1.0
  Na  Na3  1  0.55564022  0.80082438  0.72178779  1.0
  Cl  Cl4  1  0.00000000  0.89900420  0.50000000  1.0
  Cl  Cl5  1  0.50000000  0.09825079  0.50000000  1.0
  Cl  Cl6  1  0.00000000  0.40161548  0.50000000  1.0
  Cl  Cl7  1  0.50000000  0.92141158  0.50000000  1.0
