# generated using pymatgen
data_NaCl
_symmetry_space_group_name_H-M   'P 1'
_cell_length_a   4.95222477
_cell_length_b   7.72430217
_cell_length_c   9.94600824
_cell_angle_alpha   90.00000000
_cell_angle_beta   90.00000000
_cell_angle_gamma   90.00000000
_symmetry_Int_Tables_number   1
_chemical_formula_structural   NaCl
_chemical_formula_sum   'Na4 Cl4'
_cell_volume   380.45948662
_cell_formula_units_Z   4
loop_
 _symmetry_equiv_pos_site_id
 _symmetry_equiv_pos_as_xyz
  1  'x, y, z'
loop_
 _atom_site_type_symbol
 _atom_site_label
 _atom_site_symmetry_multiplicity
 _atom_site_fract_x
 _atom_site_fract_y
 _atom_site_fract_z
 _atom_site_occupancy
  Na  Na0  1  0.88157005  0.29869199  0.57596428  1.0
  Na  Na1  1  0.68732025  0.18907347  0.95721921  1.0
  Na  Na2  1  0.50213586  0.88003959  0.59554174  1.0
  Na  Na3  1  0.23170536  0.11470308  0.10145071  1.0
  Cl  Cl4  1  0.37584809  0.90744142  0.32227792  1.0
  Cl  Cl5  1  0.10973340  0.00008477  0.28678829  1.0
  Cl  Cl6  1  0.34921109  0.76141065  0.06240799  1.0
  Cl  Cl7  1  0.49796888  0.32989940  0.33094755  1.0
