# generated using pymatgen
data_NaCl
_symmetry_space_group_name_H-M   'P 1'
_cell_length_a   4.21300951
_cell_length_b   4.99569909
_cell_length_c   6.76471961
_cell_angle_alpha   90.00000000
_cell_angle_beta   65.97178186
_cell_angle_gamma   90.00000000
_symmetry_Int_Tables_number   1
_chemical_formula_structural   NaCl
_chemical_formula_sum   'Na4 Cl4'
_cell_volume   130.03892798
_cell_formula_units_Z   4
loop_
 _symmetry_equiv_pos_site_id
 _symmetry_equiv_pos_as_xyz
  1  'x, y, z'
loop_
 _atom_site_type_symbol
 _atom_site_label
 _atom_site_symmetry_multiplicity
 _atom_site_fract_x
 _atom_site_fract_y
 _atom_site_fract_z
 _atom_site_occupancy
  Na  Na0  1  0.59366602  0.36219774  0.54308156  1.0
  Na  Na1  1  0.84110680  0.07709183  0.97150155  1.0
  Na  Na2  1  0.29549750  0.07369012  0.12657802  1.0
  Na  Na3  1  0.38749574  0.26734034  0.77790935  1.0
  Cl  Cl4  1  0.28877840  0.77202564  0.19046122  1.0
  Cl  Cl5  1  0.35957879  0.28115942  0.01134007  1.0
  Cl  Cl6  1  0.19798703  0.80898097  0.76301682  1.0
  Cl  Cl7  1  0.15713593  0.29662642  0.60169139  1.0
