# generated using pymatgen
data_NaCl
_symmetry_space_group_name_H-M   'P 1'
_cell_length_a   3.52087973
_cell_length_b   3.52087973
_cell_length_c   8.54442248
_cell_angle_alpha   90.00000000
_cell_angle_beta   90.00000000
_cell_angle_gamma   90.00000000
_symmetry_Int_Tables_number   1
_chemical_formula_structural   NaCl
_chemical_formula_sum   'Na4 Cl4'
_cell_volume   105.92173707
_cell_formula_units_Z   4
loop_
 _symmetry_equiv_pos_site_id
 _symmetry_equiv_pos_as_xyz
  1  'x, y, z'
loop_
 _atom_site_type_symbol
 _atom_site_label
 _atom_site_symmetry_multiplicity
 _atom_site_fract_x
 _atom_site_fract_y
 _atom_site_fract_z
 _atom_site_occupancy
  Na  Na0  1  0.25144520  0.08302967  0.45430930  1.0
  Na  Na1  1  0.17704624  0.14548670  0.06352285  1.0
  Na  Na2  1  0.36023309  0.74102755  0.85548820  1.0
  Na  Na3  1  0.07069448  0.24141605  0.79420178  1.0
  Cl  Cl4  1  0.20934632  0.69863696  0.13434111  1.0
  Cl  Cl5  1  0.82500090  0.43257215  0.77725394  1.0
  Cl  Cl6  1  0.03918970  0.79066859  0.73026184  1.0
  Cl  Cl7  1  0.28125626  0.54938779  0.35022893  1.0
