# generated using pymatgen
data_NaCl
_symmetry_space_group_name_H-M   'P 1'
_cell_length_a   4.98457233
_cell_length_b   8.27849396
_cell_length_c   8.61893218
_cell_angle_alpha   90.00000000
_cell_angle_beta   90.00000000
_cell_angle_gamma   90.00000000
_symmetry_Int_Tables_number   1
_chemical_formula_structural   NaCl
_chemical_formula_sum   'Na4 Cl4'
_cell_volume   355.65809828
_cell_formula_units_Z   4
loop_
 _symmetry_equiv_pos_site_id
 _symmetry_equiv_pos_as_xyz
  1  'x, y, z'
loop_
 _atom_site_type_symbol
 _atom_site_label
 _atom_site_symmetry_multiplicity
 _atom_site_fract_x
 _atom_site_fract_y
 _atom_site_fract_z
 _atom_site_occupancy
  Na  Na0  1  0.53147264  0.22313057  0.49001680  1.0
  Na  Na1  1  0.03680360  0.06265408  0.40774310  1.0
  Na  Na2  1  0.75427968  0.11387311  0.87826718  1.0
  Na  Na3  1  0.37262201  0.49807659  0.02600736  1.0
  Cl  Cl4  1  0.00000000  0.00000000  0.15630464  1.0
  Cl  Cl5  1  0.50000000  0.50000000  0.60931088  1.0
  Cl  Cl6  1  0.00000000  0.50000000  0.86251436  1.0
  Cl  Cl7  1  0.50000000  0.00000000  0.90416607  1.0
