# generated using pymatgen
data_NaCl
_symmetry_space_group_name_H-M   'P 1'
_cell_length_a   3.56070702
_cell_length_b   10.79903003
_cell_length_c   11.63764839
_cell_angle_alpha   90.00000000
_cell_angle_beta   155.18849803
_cell_angle_gamma   90.00000000
_symmetry_Int_Tables_number   1
_chemical_formula_structural   NaCl
_chemical_formula_sum   'Na4 Cl4'
_cell_volume   187.78340456
_cell_formula_units_Z   4
loop_
 _symmetry_equiv_pos_site_id
 _symmetry_equiv_pos_as_xyz
  1  'x, y, z'
loop_
 _atom_site_type_symbol
 _atom_site_label
 _atom_site_symmetry_multiplicity
 _atom_site_fract_x
 _atom_site_fract_y
 _atom_site_fract_z
 _atom_site_occupancy
  Na  Na0  1  0.37571684  0.16908617  0.47528463  1.0
  Na  Na1  1  0.19438946  0.14106588  0.92608525  1.0
  Na  Na2  1  0.26372336  0.21612586  0.84732450  1.0
  Na  Na3  1  0.63395449  0.27679951  0.40644715  1.0
  Cl  Cl4  1  0.00000000  0.00000000  0.50000000  1.0
  Cl  Cl5  1  0.00000000  0.50000000  0.00000000  1.0
  Cl  Cl6  1  0.50000000  0.00000000  0.50000000  1.0
  Cl  Cl7  1  0.50000000  0.50000000  0.00000000  1.0
