# generated using pymatgen
data_NaCl
_symmetry_space_group_name_H-M   'P 1'
_cell_length_a   4.25344063
_cell_length_b   9.89436249
_cell_length_c   6.53459053
_cell_angle_alpha   90.00000000
_cell_angle_beta   90.00000000
_cell_angle_gamma   90.00000000
_symmetry_Int_Tables_number   1
_chemical_formula_structural   NaCl
_chemical_formula_sum   'Na4 Cl4'
_cell_volume   275.00878759
_cell_formula_units_Z   4
loop_
 _symmetry_equiv_pos_site_id
 _symmetry_equiv_pos_as_xyz
  1  'x, y, z'
loop_
 _atom_site_type_symbol
 _atom_site_label
 _atom_site_symmetry_multiplicity
 _atom_site_fract_x
 _atom_site_fract_y
 _atom_site_fract_z
 _atom_site_occupancy
  Na  Na0  1  0.36212292  0.61186844  0.57155249  1.0
  Na  Na1  1  0.15572848  0.30416537  0.95495151  1.0
  Na  Na2  1  0.32158378  0.00801293  0.11753673  1.0
  Na  Na3  1  0.58434695  0.50131056  0.98010003  1.0
  Cl  Cl4  1  0.12067107  0.58159637  0.18844888  1.0
  Cl  Cl5  1  0.57354581  0.18894121  0.00524433  1.0
  Cl  Cl6  1  0.33093452  0.22710838  0.92876993  1.0
  Cl  Cl7  1  0.97331912  0.67382794  0.02855475  1.0
