# generated using pymatgen
data_NaCl
_symmetry_space_group_name_H-M   'P 1'
_cell_length_a   4.75426116
_cell_length_b   4.75426116
_cell_length_c   14.88092411
_cell_angle_alpha   90.00000000
_cell_angle_beta   90.00000000
_cell_angle_gamma   120.00000000
_symmetry_Int_Tables_number   1
_chemical_formula_structural   NaCl
_chemical_formula_sum   'Na4 Cl4'
_cell_volume   291.29068900
_cell_formula_units_Z   4
loop_
 _symmetry_equiv_pos_site_id
 _symmetry_equiv_pos_as_xyz
  1  'x, y, z'
loop_
 _atom_site_type_symbol
 _atom_site_label
 _atom_site_symmetry_multiplicity
 _atom_site_fract_x
 _atom_site_fract_y
 _atom_site_fract_z
 _atom_site_occupancy
  Na  Na0  1  0.66666667  0.33333333  0.42546230  1.0
  Na  Na1  1  0.89315252  0.93414408  0.42803603  1.0
  Na  Na2  1  0.06556453  0.66894399  0.13857507  1.0
  Na  Na3  1  0.48018231  0.34953684  0.68558604  1.0
  Cl  Cl4  1  0.66666667  0.33333333  0.30441875  1.0
  Cl  Cl5  1  0.06034181  0.63142081  0.63296204  1.0
  Cl  Cl6  1  0.71901918  0.54485158  0.89539406  1.0
  Cl  Cl7  1  0.45897508  0.20001640  0.03258610  1.0
