# generated using pymatgen
data_NaCl
_symmetry_space_group_name_H-M   'P 1'
_cell_length_a   2.04459463
_cell_length_b   6.96042555
_cell_length_c   14.30167729
_cell_angle_alpha   90.00000000
_cell_angle_beta   90.00000000
_cell_angle_gamma   90.00000000
_symmetry_Int_Tables_number   1
_chemical_formula_structural   NaCl
_chemical_formula_sum   'Na4 Cl4'
_cell_volume   203.53072637
_cell_formula_units_Z   4
loop_
 _symmetry_equiv_pos_site_id
 _symmetry_equiv_pos_as_xyz
  1  'x, y, z'
loop_
 _atom_site_type_symbol
 _atom_site_label
 _atom_site_symmetry_multiplicity
 _atom_site_fract_x
 _atom_site_fract_y
 _atom_site_fract_z
 _atom_site_occupancy
  Na  Na0  1  0.25000000  0.59384331  0.39720902  1.0
  Na  Na1  1  0.75000000  0.17096117  0.45642491  1.0
  Na  Na2  1  0.25000000  0.25451883  0.58131941  1.0
  Na  Na3  1  0.75000000  0.37017778  0.79182947  1.0
  Cl  Cl4  1  0.25000000  0.69817123  0.21150845  1.0
  Cl  Cl5  1  0.75000000  0.34867101  0.23608857  1.0
  Cl  Cl6  1  0.25000000  0.75848440  0.49958748  1.0
  Cl  Cl7  1  0.75000000  0.07644610  0.56643319  1.0
