# generated using pymatgen
data_NaCl
_symmetry_space_group_name_H-M   'P 1'
_cell_length_a   6.74214072
_cell_length_b   6.74214072
_cell_length_c   4.24757408
_cell_angle_alpha   90.00000000
_cell_angle_beta   90.00000000
_cell_angle_gamma   120.00000000
_symmetry_Int_Tables_number   1
_chemical_formula_structural   NaCl
_chemical_formula_sum   'Na4 Cl4'
_cell_volume   167.21191440
_cell_formula_units_Z   4
loop_
 _symmetry_equiv_pos_site_id
 _symmetry_equiv_pos_as_xyz
  1  'x, y, z'
loop_
 _atom_site_type_symbol
 _atom_site_label
 _atom_site_symmetry_multiplicity
 _atom_site_fract_x
 _atom_site_fract_y
 _atom_site_fract_z
 _atom_site_occupancy
  Na  Na0  1  0.00000000  0.00000000  0.51798392  1.0
  Na  Na1  1  0.89837684  0.46867049  0.58587290  1.0
  Na  Na2  1  0.37063124  0.94601762  0.11061118  1.0
  Na  Na3  1  0.52520640  0.42935566  0.11868091  1.0
  Cl  Cl4  1  0.66666667  0.33333333  0.35732227  1.0
  Cl  Cl5  1  0.27384532  0.67773839  0.59105303  1.0
  Cl  Cl6  1  0.53371156  0.29910477  0.93041140  1.0
  Cl  Cl7  1  0.71047208  0.47022988  0.03229940  1.0
