# generated using pymatgen
data_NaCl
_symmetry_space_group_name_H-M   'P 1'
_cell_length_a   5.42463343
_cell_length_b   9.76121538
_cell_length_c   12.84710803
_cell_angle_alpha   99.37076546
_cell_angle_beta   151.67654874
_cell_angle_gamma   75.81684035
_symmetry_Int_Tables_number   1
_chemical_formula_structural   NaCl
_chemical_formula_sum   'Na4 Cl4'
_cell_volume   310.84005123
_cell_formula_units_Z   4
loop_
 _symmetry_equiv_pos_site_id
 _symmetry_equiv_pos_as_xyz
  1  'x, y, z'
loop_
 _atom_site_type_symbol
 _atom_site_label
 _atom_site_symmetry_multiplicity
 _atom_site_fract_x
 _atom_site_fract_y
 _atom_site_fract_z
 _atom_site_occupancy
  Na  Na0  1  0.00000000  0.50000000  0.50000000  1.0
  Na  Na1  1  0.50000000  0.00000000  0.50000000  1.0
  Na  Na2  1  0.66489234  0.87994753  0.00080012  1.0
  Na  Na3  1  0.09969055  0.77273541  0.53541984  1.0
  Cl  Cl4  1  0.00000000  0.00000000  0.50000000  1.0
  Cl  Cl5  1  0.50000000  0.50000000  0.50000000  1.0
  Cl  Cl6  1  0.68385783  0.14699248  0.96683995  1.0
  Cl  Cl7  1  0.66045353  0.70163812  0.44744323  1.0
