# generated using pymatgen
data_NaCl
_symmetry_space_group_name_H-M   'P 1'
_cell_length_a   4.85820965
_cell_length_b   5.51146325
_cell_length_c   7.78554042
_cell_angle_alpha   90.00000000
_cell_angle_beta   90.00000000
_cell_angle_gamma   90.00000000
_symmetry_Int_Tables_number   1
_chemical_formula_structural   NaCl
_chemical_formula_sum   'Na4 Cl4'
_cell_volume   208.46441533
_cell_formula_units_Z   4
loop_
 _symmetry_equiv_pos_site_id
 _symmetry_equiv_pos_as_xyz
  1  'x, y, z'
loop_
 _atom_site_type_symbol
 _atom_site_label
 _atom_site_symmetry_multiplicity
 _atom_site_fract_x
 _atom_site_fract_y
 _atom_site_fract_z
 _atom_site_occupancy
  Na  Na0  1  0.50850398  0.00000000  0.37060445  1.0
  Na  Na1  1  0.17694983  0.00000000  0.43587234  1.0
  Na  Na2  1  0.27301075  0.50000000  0.06184897  1.0
  Na  Na3  1  0.54996129  0.50000000  0.29630123  1.0
  Cl  Cl4  1  0.00000000  0.84174535  0.07337402  1.0
  Cl  Cl5  1  0.00000000  0.32031333  0.60343985  1.0
  Cl  Cl6  1  0.50000000  0.80726289  0.87576544  1.0
  Cl  Cl7  1  0.50000000  0.28942758  0.05798711  1.0
