# generated using pymatgen
data_NaCl
_symmetry_space_group_name_H-M   'P 1'
_cell_length_a   5.71821539
_cell_length_b   6.19640715
_cell_length_c   4.01956292
_cell_angle_alpha   90.00000000
_cell_angle_beta   90.00000000
_cell_angle_gamma   90.00000000
_symmetry_Int_Tables_number   1
_chemical_formula_structural   NaCl
_chemical_formula_sum   'Na4 Cl4'
_cell_volume   142.42272394
_cell_formula_units_Z   4
loop_
 _symmetry_equiv_pos_site_id
 _symmetry_equiv_pos_as_xyz
  1  'x, y, z'
loop_
 _atom_site_type_symbol
 _atom_site_label
 _atom_site_symmetry_multiplicity
 _atom_site_fract_x
 _atom_site_fract_y
 _atom_site_fract_z
 _atom_site_occupancy
  Na  Na0  1  0.43977356  0.36061861  0.87724759  1.0
  Na  Na1  1  0.13025409  0.08953756  0.50839402  1.0
  Na  Na2  1  0.25742080  0.51419741  0.53318732  1.0
  Na  Na3  1  0.70802230  0.68223945  0.05074976  1.0
  Cl  Cl4  1  0.00000000  0.00000000  0.16337957  1.0
  Cl  Cl5  1  0.50000000  0.50000000  0.01971444  1.0
  Cl  Cl6  1  0.00000000  0.00000000  0.85417071  1.0
  Cl  Cl7  1  0.50000000  0.50000000  0.60355291  1.0
