# generated using pymatgen
data_NaCl
_symmetry_space_group_name_H-M   'P 1'
_cell_length_a   6.16673903
_cell_length_b   8.21211739
_cell_length_c   3.84699664
_cell_angle_alpha   90.00000000
_cell_angle_beta   105.16039285
_cell_angle_gamma   90.00000000
_symmetry_Int_Tables_number   1
_chemical_formula_structural   NaCl
_chemical_formula_sum   'Na4 Cl4'
_cell_volume   188.03933995
_cell_formula_units_Z   4
loop_
 _symmetry_equiv_pos_site_id
 _symmetry_equiv_pos_as_xyz
  1  'x, y, z'
loop_
 _atom_site_type_symbol
 _atom_site_label
 _atom_site_symmetry_multiplicity
 _atom_site_fract_x
 _atom_site_fract_y
 _atom_site_fract_z
 _atom_site_occupancy
  Na  Na0  1  0.36839705  0.50000000  0.54558153  1.0
  Na  Na1  1  0.88602251  0.50000000  0.57591815  1.0
  Na  Na2  1  0.71656372  0.78209478  0.11833568  1.0
  Na  Na3  1  0.98007724  0.82395085  0.42606800  1.0
  Cl  Cl4  1  0.22415399  0.00000000  0.14448701  1.0
  Cl  Cl5  1  0.31702590  0.00000000  0.62659970  1.0
  Cl  Cl6  1  0.98259450  0.40999084  0.97172505  1.0
  Cl  Cl7  1  0.66228927  0.63893183  0.14631725  1.0
