# generated using pymatgen
data_NaCl
_symmetry_space_group_name_H-M   'P 1'
_cell_length_a   7.16885926
_cell_length_b   7.16885926
_cell_length_c   3.82696206
_cell_angle_alpha   90.00000000
_cell_angle_beta   90.00000000
_cell_angle_gamma   90.00000000
_symmetry_Int_Tables_number   1
_chemical_formula_structural   NaCl
_chemical_formula_sum   'Na4 Cl4'
_cell_volume   196.67731257
_cell_formula_units_Z   4
loop_
 _symmetry_equiv_pos_site_id
 _symmetry_equiv_pos_as_xyz
  1  'x, y, z'
loop_
 _atom_site_type_symbol
 _atom_site_label
 _atom_site_symmetry_multiplicity
 _atom_site_fract_x
 _atom_site_fract_y
 _atom_site_fract_z
 _atom_site_occupancy
  Na  Na0  1  0.32417949  0.82417949  0.00000000  1.0
  Na  Na1  1  0.14156976  0.64156976  0.00000000  1.0
  Na  Na2  1  0.72467936  0.77532064  0.00000000  1.0
  Na  Na3  1  0.40379910  0.09620090  0.00000000  1.0
  Cl  Cl4  1  0.17066594  0.67066594  0.50000000  1.0
  Cl  Cl5  1  0.49527780  0.99527780  0.50000000  1.0
  Cl  Cl6  1  0.66413663  0.83586337  0.50000000  1.0
  Cl  Cl7  1  0.00625662  0.49374338  0.50000000  1.0
