# generated using pymatgen
data_NaCl
_symmetry_space_group_name_H-M   'P 1'
_cell_length_a   9.15142829
_cell_length_b   9.15142829
_cell_length_c   2.94868075
_cell_angle_alpha   90.00000000
_cell_angle_beta   90.00000000
_cell_angle_gamma   90.00000000
_symmetry_Int_Tables_number   1
_chemical_formula_structural   NaCl
_chemical_formula_sum   'Na4 Cl4'
_cell_volume   246.94800186
_cell_formula_units_Z   4
loop_
 _symmetry_equiv_pos_site_id
 _symmetry_equiv_pos_as_xyz
  1  'x, y, z'
loop_
 _atom_site_type_symbol
 _atom_site_label
 _atom_site_symmetry_multiplicity
 _atom_site_fract_x
 _atom_site_fract_y
 _atom_site_fract_z
 _atom_site_occupancy
  Na  Na0  1  0.26567070  0.08631551  0.49476396  1.0
  Na  Na1  1  0.11169914  0.26685876  0.06151742  1.0
  Na  Na2  1  0.35278151  0.85418813  0.84839770  1.0
  Na  Na3  1  0.00010743  0.09996586  0.74176607  1.0
  Cl  Cl4  1  0.56540609  0.85059913  0.13358484  1.0
  Cl  Cl5  1  0.54350073  0.43934725  0.72222544  1.0
  Cl  Cl6  1  0.49795593  0.91587358  0.13352723  1.0
  Cl  Cl7  1  0.22807975  0.32384274  0.44084187  1.0
