# generated using pymatgen
data_NaCl
_symmetry_space_group_name_H-M   'P 1'
_cell_length_a   2.58750802
_cell_length_b   17.72048018
_cell_length_c   4.79205525
_cell_angle_alpha   90.00000000
_cell_angle_beta   90.00000000
_cell_angle_gamma   90.00000000
_symmetry_Int_Tables_number   1
_chemical_formula_structural   NaCl
_chemical_formula_sum   'Na4 Cl4'
_cell_volume   219.72476424
_cell_formula_units_Z   4
loop_
 _symmetry_equiv_pos_site_id
 _symmetry_equiv_pos_as_xyz
  1  'x, y, z'
loop_
 _atom_site_type_symbol
 _atom_site_label
 _atom_site_symmetry_multiplicity
 _atom_site_fract_x
 _atom_site_fract_y
 _atom_site_fract_z
 _atom_site_occupancy
  Na  Na0  1  0.18386903  0.28481010  0.48277689  1.0
  Na  Na1  1  0.35651809  0.10752191  0.47656386  1.0
  Na  Na2  1  0.81495610  0.72401254  0.52189573  1.0
  Na  Na3  1  0.39533940  0.57604393  0.90834148  1.0
  Cl  Cl4  1  0.07762750  0.78943225  0.08098886  1.0
  Cl  Cl5  1  0.47883806  0.40566290  0.33134141  1.0
  Cl  Cl6  1  0.93030917  0.18771133  0.33258920  1.0
  Cl  Cl7  1  0.51734718  0.52160953  0.69890095  1.0
