# generated using pymatgen
data_NaCl
_symmetry_space_group_name_H-M   'P 1'
_cell_length_a   4.28935457
_cell_length_b   4.28935457
_cell_length_c   13.05340337
_cell_angle_alpha   90.00000000
_cell_angle_beta   90.00000000
_cell_angle_gamma   90.00000000
_symmetry_Int_Tables_number   1
_chemical_formula_structural   NaCl
_chemical_formula_sum   'Na4 Cl4'
_cell_volume   240.16385940
_cell_formula_units_Z   4
loop_
 _symmetry_equiv_pos_site_id
 _symmetry_equiv_pos_as_xyz
  1  'x, y, z'
loop_
 _atom_site_type_symbol
 _atom_site_label
 _atom_site_symmetry_multiplicity
 _atom_site_fract_x
 _atom_site_fract_y
 _atom_site_fract_z
 _atom_site_occupancy
  Na  Na0  1  0.31561505  0.81561505  0.78573709  1.0
  Na  Na1  1  0.13233935  0.63233935  0.57074447  1.0
  Na  Na2  1  0.79247033  0.70752967  0.58041061  1.0
  Na  Na3  1  0.20383611  0.29616389  0.63606069  1.0
  Cl  Cl4  1  0.08706215  0.58706215  0.65592255  1.0
  Cl  Cl5  1  0.77707078  0.27707078  0.09601281  1.0
  Cl  Cl6  1  0.92362154  0.57637846  0.85001447  1.0
  Cl  Cl7  1  0.98320098  0.51679902  0.49142146  1.0
