# generated using pymatgen
data_NaCl
_symmetry_space_group_name_H-M   'P 1'
_cell_length_a   4.22420958
_cell_length_b   9.62349032
_cell_length_c   4.68668545
_cell_angle_alpha   90.00000000
_cell_angle_beta   90.00000000
_cell_angle_gamma   90.00000000
_symmetry_Int_Tables_number   1
_chemical_formula_structural   NaCl
_chemical_formula_sum   'Na4 Cl4'
_cell_volume   190.52144972
_cell_formula_units_Z   4
loop_
 _symmetry_equiv_pos_site_id
 _symmetry_equiv_pos_as_xyz
  1  'x, y, z'
loop_
 _atom_site_type_symbol
 _atom_site_label
 _atom_site_symmetry_multiplicity
 _atom_site_fract_x
 _atom_site_fract_y
 _atom_site_fract_z
 _atom_site_occupancy
  Na  Na0  1  0.00000000  0.21011791  0.44179770  1.0
  Na  Na1  1  0.00000000  0.19719388  0.81591945  1.0
  Na  Na2  1  0.50000000  0.41033906  0.47803300  1.0
  Na  Na3  1  0.50000000  0.45440163  0.82853782  1.0
  Cl  Cl4  1  0.00000000  0.80293770  0.15373552  1.0
  Cl  Cl5  1  0.00000000  0.22768896  0.10870924  1.0
  Cl  Cl6  1  0.50000000  0.85780745  0.98086838  1.0
  Cl  Cl7  1  0.50000000  0.19776400  0.62795607  1.0
