# generated using pymatgen
data_NaCl
_symmetry_space_group_name_H-M   'P 1'
_cell_length_a   5.19745779
_cell_length_b   5.19745779
_cell_length_c   10.75607145
_cell_angle_alpha   90.00000000
_cell_angle_beta   90.00000000
_cell_angle_gamma   90.00000000
_symmetry_Int_Tables_number   1
_chemical_formula_structural   NaCl
_chemical_formula_sum   'Na4 Cl4'
_cell_volume   290.55986192
_cell_formula_units_Z   4
loop_
 _symmetry_equiv_pos_site_id
 _symmetry_equiv_pos_as_xyz
  1  'x, y, z'
loop_
 _atom_site_type_symbol
 _atom_site_label
 _atom_site_symmetry_multiplicity
 _atom_site_fract_x
 _atom_site_fract_y
 _atom_site_fract_z
 _atom_site_occupancy
  Na  Na0  1  0.30917831  0.30917831  0.76894514  1.0
  Na  Na1  1  0.19812197  0.19812197  0.51087776  1.0
  Na  Na2  1  0.28655623  0.71344377  0.52449305  1.0
  Na  Na3  1  0.69523425  0.30476575  0.82611920  1.0
  Cl  Cl4  1  0.17715403  0.17715403  0.11434699  1.0
  Cl  Cl5  1  0.35577304  0.35577304  0.46752934  1.0
  Cl  Cl6  1  0.04350564  0.95649436  0.22368391  1.0
  Cl  Cl7  1  0.72608768  0.27391232  0.52188863  1.0
