# generated using pymatgen
data_NaCl
_symmetry_space_group_name_H-M   'P 1'
_cell_length_a   8.32996633
_cell_length_b   8.32996633
_cell_length_c   2.99423047
_cell_angle_alpha   90.00000000
_cell_angle_beta   90.00000000
_cell_angle_gamma   90.00000000
_symmetry_Int_Tables_number   1
_chemical_formula_structural   NaCl
_chemical_formula_sum   'Na4 Cl4'
_cell_volume   207.76467907
_cell_formula_units_Z   4
loop_
 _symmetry_equiv_pos_site_id
 _symmetry_equiv_pos_as_xyz
  1  'x, y, z'
loop_
 _atom_site_type_symbol
 _atom_site_label
 _atom_site_symmetry_multiplicity
 _atom_site_fract_x
 _atom_site_fract_y
 _atom_site_fract_z
 _atom_site_occupancy
  Na  Na0  1  0.36315734  0.86315734  0.50000000  1.0
  Na  Na1  1  0.07112298  0.57112298  0.50000000  1.0
  Na  Na2  1  0.66942497  0.83057503  0.50000000  1.0
  Na  Na3  1  0.44126881  0.05873119  0.50000000  1.0
  Cl  Cl4  1  0.00000000  0.00000000  0.07757846  1.0
  Cl  Cl5  1  0.50000000  0.50000000  0.89595811  1.0
  Cl  Cl6  1  0.00000000  0.00000000  0.54079343  1.0
  Cl  Cl7  1  0.50000000  0.50000000  0.17633519  1.0
