# generated using pymatgen
data_NaCl
_symmetry_space_group_name_H-M   'P 1'
_cell_length_a   6.12182397
_cell_length_b   7.81987488
_cell_length_c   5.62662820
_cell_angle_alpha   90.00000000
_cell_angle_beta   90.00000000
_cell_angle_gamma   90.00000000
_symmetry_Int_Tables_number   1
_chemical_formula_structural   NaCl
_chemical_formula_sum   'Na4 Cl4'
_cell_volume   269.35736836
_cell_formula_units_Z   4
loop_
 _symmetry_equiv_pos_site_id
 _symmetry_equiv_pos_as_xyz
  1  'x, y, z'
loop_
 _atom_site_type_symbol
 _atom_site_label
 _atom_site_symmetry_multiplicity
 _atom_site_fract_x
 _atom_site_fract_y
 _atom_site_fract_z
 _atom_site_occupancy
  Na  Na0  1  0.36721388  0.04456219  0.63490768  1.0
  Na  Na1  1  0.11318485  0.29095182  0.57062563  1.0
  Na  Na2  1  0.66490477  0.33314755  0.94778344  1.0
  Na  Na3  1  0.19770140  0.22291586  0.29485051  1.0
  Cl  Cl4  1  0.42363300  0.51525431  0.14198269  1.0
  Cl  Cl5  1  0.53855546  0.35587992  0.12927385  1.0
  Cl  Cl6  1  0.61762310  0.93898044  0.63484705  1.0
  Cl  Cl7  1  0.09115020  0.25367874  0.93763017  1.0
