# generated using pymatgen
data_NaCl
_symmetry_space_group_name_H-M   'P 1'
_cell_length_a   7.51195540
_cell_length_b   9.88710138
_cell_length_c   2.63429253
_cell_angle_alpha   90.00000000
_cell_angle_beta   116.29624234
_cell_angle_gamma   90.00000000
_symmetry_Int_Tables_number   1
_chemical_formula_structural   NaCl
_chemical_formula_sum   'Na4 Cl4'
_cell_volume   175.40573328
_cell_formula_units_Z   4
loop_
 _symmetry_equiv_pos_site_id
 _symmetry_equiv_pos_as_xyz
  1  'x, y, z'
loop_
 _atom_site_type_symbol
 _atom_site_label
 _atom_site_symmetry_multiplicity
 _atom_site_fract_x
 _atom_site_fract_y
 _atom_site_fract_z
 _atom_site_occupancy
  Na  Na0  1  0.46741481  0.28951353  0.39826594  1.0
  Na  Na1  1  0.90220655  0.20137762  0.97405417  1.0
  Na  Na2  1  0.84677579  0.72001553  0.00128332  1.0
  Na  Na3  1  0.67366096  0.96475397  0.80367193  1.0
  Cl  Cl4  1  0.25869971  0.88024196  0.02403023  1.0
  Cl  Cl5  1  0.38085396  0.33695884  0.95837447  1.0
  Cl  Cl6  1  0.87950549  0.42763187  0.95698775  1.0
  Cl  Cl7  1  0.63630288  0.64708321  0.62143001  1.0
