# generated using pymatgen
data_NaCl
_symmetry_space_group_name_H-M   'P 1'
_cell_length_a   7.96900889
_cell_length_b   7.96900889
_cell_length_c   5.53048265
_cell_angle_alpha   90.00000000
_cell_angle_beta   90.00000000
_cell_angle_gamma   120.00000000
_symmetry_Int_Tables_number   1
_chemical_formula_structural   NaCl
_chemical_formula_sum   'Na4 Cl4'
_cell_volume   304.16013238
_cell_formula_units_Z   4
loop_
 _symmetry_equiv_pos_site_id
 _symmetry_equiv_pos_as_xyz
  1  'x, y, z'
loop_
 _atom_site_type_symbol
 _atom_site_label
 _atom_site_symmetry_multiplicity
 _atom_site_fract_x
 _atom_site_fract_y
 _atom_site_fract_z
 _atom_site_occupancy
  Na  Na0  1  0.33333333  0.66666667  0.03310527  1.0
  Na  Na1  1  0.86658129  0.92655020  0.51503730  1.0
  Na  Na2  1  0.43617464  0.18085501  0.01809916  1.0
  Na  Na3  1  0.31830638  0.09054552  0.48286955  1.0
  Cl  Cl4  1  0.00000000  0.00000000  0.20245121  1.0
  Cl  Cl5  1  0.57888045  0.67701167  0.44679196  1.0
  Cl  Cl6  1  0.63180439  0.59486138  0.56499034  1.0
  Cl  Cl7  1  0.78131978  0.39226140  0.12025138  1.0
