# generated using pymatgen
data_NaCl
_symmetry_space_group_name_H-M   'P 1'
_cell_length_a   2.52177650
_cell_length_b   12.52479208
_cell_length_c   8.85179660
_cell_angle_alpha   90.00000000
_cell_angle_beta   90.00000000
_cell_angle_gamma   90.00000000
_symmetry_Int_Tables_number   1
_chemical_formula_structural   NaCl
_chemical_formula_sum   'Na4 Cl4'
_cell_volume   279.58157318
_cell_formula_units_Z   4
loop_
 _symmetry_equiv_pos_site_id
 _symmetry_equiv_pos_as_xyz
  1  'x, y, z'
loop_
 _atom_site_type_symbol
 _atom_site_label
 _atom_site_symmetry_multiplicity
 _atom_site_fract_x
 _atom_site_fract_y
 _atom_site_fract_z
 _atom_site_occupancy
  Na  Na0  1  0.50315488  0.08044347  0.61422385  1.0
  Na  Na1  1  0.14008968  0.48229575  0.35808179  1.0
  Na  Na2  1  0.35028222  0.65738838  0.13924125  1.0
  Na  Na3  1  0.61648893  0.77379409  0.55362095  1.0
  Cl  Cl4  1  0.00000000  0.50000000  0.10863165  1.0
  Cl  Cl5  1  0.50000000  0.00000000  0.45635545  1.0
  Cl  Cl6  1  0.00000000  0.50000000  0.94205431  1.0
  Cl  Cl7  1  0.50000000  0.00000000  0.82766856  1.0
