# generated using pymatgen
data_NaCl
_symmetry_space_group_name_H-M   'P 1'
_cell_length_a   4.92631157
_cell_length_b   10.25775652
_cell_length_c   4.51278194
_cell_angle_alpha   90.00000000
_cell_angle_beta   135.07380912
_cell_angle_gamma   90.00000000
_symmetry_Int_Tables_number   1
_chemical_formula_structural   NaCl
_chemical_formula_sum   'Na4 Cl4'
_cell_volume   161.04358441
_cell_formula_units_Z   4
loop_
 _symmetry_equiv_pos_site_id
 _symmetry_equiv_pos_as_xyz
  1  'x, y, z'
loop_
 _atom_site_type_symbol
 _atom_site_label
 _atom_site_symmetry_multiplicity
 _atom_site_fract_x
 _atom_site_fract_y
 _atom_site_fract_z
 _atom_site_occupancy
  Na  Na0  1  0.00000000  0.03510370  0.50000000  1.0
  Na  Na1  1  0.00000000  0.80248672  0.50000000  1.0
  Na  Na2  1  0.50000000  0.17329448  0.50000000  1.0
  Na  Na3  1  0.50000000  0.47812888  0.50000000  1.0
  Cl  Cl4  1  0.18852382  0.00000000  0.23059204  1.0
  Cl  Cl5  1  0.51837730  0.00000000  0.58371377  1.0
  Cl  Cl6  1  0.34832745  0.50000000  0.79505446  1.0
  Cl  Cl7  1  0.88746446  0.50000000  0.43345768  1.0
