# generated using pymatgen
data_NaCl
_symmetry_space_group_name_H-M   'P 1'
_cell_length_a   3.52210396
_cell_length_b   3.52210396
_cell_length_c   13.33942264
_cell_angle_alpha   90.00000000
_cell_angle_beta   90.00000000
_cell_angle_gamma   90.00000000
_symmetry_Int_Tables_number   1
_chemical_formula_structural   NaCl
_chemical_formula_sum   'Na4 Cl4'
_cell_volume   165.47842323
_cell_formula_units_Z   4
loop_
 _symmetry_equiv_pos_site_id
 _symmetry_equiv_pos_as_xyz
  1  'x, y, z'
loop_
 _atom_site_type_symbol
 _atom_site_label
 _atom_site_symmetry_multiplicity
 _atom_site_fract_x
 _atom_site_fract_y
 _atom_site_fract_z
 _atom_site_occupancy
  Na  Na0  1  0.80269841  0.48776113  0.69010967  1.0
  Na  Na1  1  0.00092307  0.42377923  0.36823819  1.0
  Na  Na2  1  0.94865576  0.91342478  0.50208859  1.0
  Na  Na3  1  0.07039936  0.18701016  0.77072121  1.0
  Cl  Cl4  1  0.00000000  0.50000000  0.18427627  1.0
  Cl  Cl5  1  0.50000000  0.00000000  0.48828824  1.0
  Cl  Cl6  1  0.50000000  0.50000000  0.76729845  1.0
  Cl  Cl7  1  0.50000000  0.50000000  0.64238088  1.0
