# generated using pymatgen
data_NaCl
_symmetry_space_group_name_H-M   'P 1'
_cell_length_a   4.12349170
_cell_length_b   5.44267861
_cell_length_c   8.16300872
_cell_angle_alpha   90.00000000
_cell_angle_beta   90.00000000
_cell_angle_gamma   90.00000000
_symmetry_Int_Tables_number   1
_chemical_formula_structural   NaCl
_chemical_formula_sum   'Na4 Cl4'
_cell_volume   183.20109923
_cell_formula_units_Z   4
loop_
 _symmetry_equiv_pos_site_id
 _symmetry_equiv_pos_as_xyz
  1  'x, y, z'
loop_
 _atom_site_type_symbol
 _atom_site_label
 _atom_site_symmetry_multiplicity
 _atom_site_fract_x
 _atom_site_fract_y
 _atom_site_fract_z
 _atom_site_occupancy
  Na  Na0  1  0.37327199  0.03215857  0.49517500  1.0
  Na  Na1  1  0.08293528  0.35940538  0.10327820  1.0
  Na  Na2  1  0.77240977  0.13859293  0.56162196  1.0
  Na  Na3  1  0.08698531  0.10442598  0.23291022  1.0
  Cl  Cl4  1  0.00000000  0.86962513  0.11899787  1.0
  Cl  Cl5  1  0.00000000  0.46509171  0.96137368  1.0
  Cl  Cl6  1  0.50000000  0.30750166  0.94873556  1.0
  Cl  Cl7  1  0.50000000  0.77642621  0.55506764  1.0
