# generated using pymatgen
data_NaCl
_symmetry_space_group_name_H-M   'P 1'
_cell_length_a   5.28393584
_cell_length_b   5.28393584
_cell_length_c   9.36462129
_cell_angle_alpha   90.00000000
_cell_angle_beta   90.00000000
_cell_angle_gamma   90.00000000
_symmetry_Int_Tables_number   1
_chemical_formula_structural   NaCl
_chemical_formula_sum   'Na4 Cl4'
_cell_volume   261.46002003
_cell_formula_units_Z   4
loop_
 _symmetry_equiv_pos_site_id
 _symmetry_equiv_pos_as_xyz
  1  'x, y, z'
loop_
 _atom_site_type_symbol
 _atom_site_label
 _atom_site_symmetry_multiplicity
 _atom_site_fract_x
 _atom_site_fract_y
 _atom_site_fract_z
 _atom_site_occupancy
  Na  Na0  1  0.00000000  0.50000000  0.55299829  1.0
  Na  Na1  1  0.50000000  0.00000000  0.36540337  1.0
  Na  Na2  1  0.50000000  0.50000000  0.13461503  1.0
  Na  Na3  1  0.50000000  0.50000000  0.37204613  1.0
  Cl  Cl4  1  0.20559302  0.51971624  0.17122222  1.0
  Cl  Cl5  1  0.78901012  0.32482801  0.59259795  1.0
  Cl  Cl6  1  0.58269837  0.65062601  0.68159022  1.0
  Cl  Cl7  1  0.30622481  0.22224302  0.00057663  1.0
