# generated using pymatgen
data_NaCl
_symmetry_space_group_name_H-M   'P 1'
_cell_length_a   4.44897473
_cell_length_b   4.44897473
_cell_length_c   12.40357045
_cell_angle_alpha   90.00000000
_cell_angle_beta   90.00000000
_cell_angle_gamma   90.00000000
_symmetry_Int_Tables_number   1
_chemical_formula_structural   NaCl
_chemical_formula_sum   'Na4 Cl4'
_cell_volume   245.50853550
_cell_formula_units_Z   4
loop_
 _symmetry_equiv_pos_site_id
 _symmetry_equiv_pos_as_xyz
  1  'x, y, z'
loop_
 _atom_site_type_symbol
 _atom_site_label
 _atom_site_symmetry_multiplicity
 _atom_site_fract_x
 _atom_site_fract_y
 _atom_site_fract_z
 _atom_site_occupancy
  Na  Na0  1  0.95683966  0.38477380  0.77135388  1.0
  Na  Na1  1  0.35748617  0.19913406  0.93160654  1.0
  Na  Na2  1  0.97914079  0.40252299  0.91076251  1.0
  Na  Na3  1  0.18179737  0.55926879  0.29705968  1.0
  Cl  Cl4  1  0.43443618  0.72523474  0.06864514  1.0
  Cl  Cl5  1  0.89347051  0.58346016  0.10890958  1.0
  Cl  Cl6  1  0.77646855  0.74645609  0.26024914  1.0
  Cl  Cl7  1  0.26032071  0.54426471  0.19306168  1.0
