# generated using pymatgen
data_NaCl
_symmetry_space_group_name_H-M   'P 1'
_cell_length_a   4.32146710
_cell_length_b   5.96812245
_cell_length_c   4.03642155
_cell_angle_alpha   90.00000000
_cell_angle_beta   90.00000000
_cell_angle_gamma   90.00000000
_symmetry_Int_Tables_number   1
_chemical_formula_structural   NaCl
_chemical_formula_sum   'Na4 Cl4'
_cell_volume   104.10352909
_cell_formula_units_Z   4
loop_
 _symmetry_equiv_pos_site_id
 _symmetry_equiv_pos_as_xyz
  1  'x, y, z'
loop_
 _atom_site_type_symbol
 _atom_site_label
 _atom_site_symmetry_multiplicity
 _atom_site_fract_x
 _atom_site_fract_y
 _atom_site_fract_z
 _atom_site_occupancy
  Na  Na0  1  0.35211311  0.05102929  0.53521053  1.0
  Na  Na1  1  0.50256293  0.34405794  0.93952197  1.0
  Na  Na2  1  0.28903225  0.36311644  0.55437235  1.0
  Na  Na3  1  0.03636989  0.16865333  0.36279827  1.0
  Cl  Cl4  1  0.22591829  0.84507622  0.08407075  1.0
  Cl  Cl5  1  0.97791985  0.49487132  0.01431571  1.0
  Cl  Cl6  1  0.20216161  0.67970569  0.46274003  1.0
  Cl  Cl7  1  0.23256051  0.28925740  0.01412420  1.0
