# generated using pymatgen
data_NaCl
_symmetry_space_group_name_H-M   'P 1'
_cell_length_a   4.08652622
_cell_length_b   9.28475558
_cell_length_c   9.72366098
_cell_angle_alpha   90.00000000
_cell_angle_beta   90.00000000
_cell_angle_gamma   90.00000000
_symmetry_Int_Tables_number   1
_chemical_formula_structural   NaCl
_chemical_formula_sum   'Na4 Cl4'
_cell_volume   368.93900640
_cell_formula_units_Z   4
loop_
 _symmetry_equiv_pos_site_id
 _symmetry_equiv_pos_as_xyz
  1  'x, y, z'
loop_
 _atom_site_type_symbol
 _atom_site_label
 _atom_site_symmetry_multiplicity
 _atom_site_fract_x
 _atom_site_fract_y
 _atom_site_fract_z
 _atom_site_occupancy
  Na  Na0  1  0.42636499  0.20090172  0.58732627  1.0
  Na  Na1  1  0.61935176  0.73412439  0.86869882  1.0
  Na  Na2  1  0.29674809  0.41069788  0.38096491  1.0
  Na  Na3  1  0.48307903  0.49896779  0.65770146  1.0
  Cl  Cl4  1  0.54330586  0.42467807  0.20329955  1.0
  Cl  Cl5  1  0.03096974  0.37080852  0.03950052  1.0
  Cl  Cl6  1  0.41723490  0.95668021  0.51412683  1.0
  Cl  Cl7  1  0.22014480  0.27938767  0.99764326  1.0
