# generated using pymatgen
data_NaCl
_symmetry_space_group_name_H-M   'P 1'
_cell_length_a   5.33863097
_cell_length_b   8.72613911
_cell_length_c   4.61091187
_cell_angle_alpha   90.00000000
_cell_angle_beta   90.00000000
_cell_angle_gamma   90.00000000
_symmetry_Int_Tables_number   1
_chemical_formula_structural   NaCl
_chemical_formula_sum   'Na4 Cl4'
_cell_volume   214.80226431
_cell_formula_units_Z   4
loop_
 _symmetry_equiv_pos_site_id
 _symmetry_equiv_pos_as_xyz
  1  'x, y, z'
loop_
 _atom_site_type_symbol
 _atom_site_label
 _atom_site_symmetry_multiplicity
 _atom_site_fract_x
 _atom_site_fract_y
 _atom_site_fract_z
 _atom_site_occupancy
  Na  Na0  1  0.35154317  0.03275191  0.00000000  1.0
  Na  Na1  1  0.10514872  0.26120947  0.00000000  1.0
  Na  Na2  1  0.76953347  0.34495732  0.50000000  1.0
  Na  Na3  1  0.36853380  0.44433436  0.50000000  1.0
  Cl  Cl4  1  0.42921011  0.65972983  0.00000000  1.0
  Cl  Cl5  1  0.56844073  0.49424932  0.00000000  1.0
  Cl  Cl6  1  0.70899476  0.99678401  0.50000000  1.0
  Cl  Cl7  1  0.04478232  0.11328691  0.50000000  1.0
