# generated using pymatgen
data_NaCl
_symmetry_space_group_name_H-M   'P 1'
_cell_length_a   5.36368618
_cell_length_b   5.36368618
_cell_length_c   7.10532786
_cell_angle_alpha   90.00000000
_cell_angle_beta   90.00000000
_cell_angle_gamma   90.00000000
_symmetry_Int_Tables_number   1
_chemical_formula_structural   NaCl
_chemical_formula_sum   'Na4 Cl4'
_cell_volume   204.41409690
_cell_formula_units_Z   4
loop_
 _symmetry_equiv_pos_site_id
 _symmetry_equiv_pos_as_xyz
  1  'x, y, z'
loop_
 _atom_site_type_symbol
 _atom_site_label
 _atom_site_symmetry_multiplicity
 _atom_site_fract_x
 _atom_site_fract_y
 _atom_site_fract_z
 _atom_site_occupancy
  Na  Na0  1  0.66393741  0.27879068  0.58546207  1.0
  Na  Na1  1  0.23367739  0.71865806  0.67576530  1.0
  Na  Na2  1  0.05069777  0.59167960  0.99821728  1.0
  Na  Na3  1  0.00021158  0.01771140  0.66024814  1.0
  Cl  Cl4  1  0.11940410  0.38407846  0.00326392  1.0
  Cl  Cl5  1  0.55827553  0.42843216  0.12041453  1.0
  Cl  Cl6  1  0.72134445  0.49758174  0.74725546  1.0
  Cl  Cl7  1  0.16888308  0.18725194  0.28035787  1.0
