# generated using pymatgen
data_NaCl
_symmetry_space_group_name_H-M   'P 1'
_cell_length_a   5.72581065
_cell_length_b   3.50999299
_cell_length_c   12.99313949
_cell_angle_alpha   90.00000000
_cell_angle_beta   90.00000000
_cell_angle_gamma   90.00000000
_symmetry_Int_Tables_number   1
_chemical_formula_structural   NaCl
_chemical_formula_sum   'Na4 Cl4'
_cell_volume   261.13033869
_cell_formula_units_Z   4
loop_
 _symmetry_equiv_pos_site_id
 _symmetry_equiv_pos_as_xyz
  1  'x, y, z'
loop_
 _atom_site_type_symbol
 _atom_site_label
 _atom_site_symmetry_multiplicity
 _atom_site_fract_x
 _atom_site_fract_y
 _atom_site_fract_z
 _atom_site_occupancy
  Na  Na0  1  0.36190190  0.07696108  0.38441712  1.0
  Na  Na1  1  0.05471146  0.20816360  0.55741302  1.0
  Na  Na2  1  0.22325592  0.63323599  0.11156270  1.0
  Na  Na3  1  0.74033232  0.61950345  0.42484470  1.0
  Cl  Cl4  1  0.00000000  0.50000000  0.19597964  1.0
  Cl  Cl5  1  0.50000000  0.00000000  0.13275367  1.0
  Cl  Cl6  1  0.00000000  0.50000000  0.83653591  1.0
  Cl  Cl7  1  0.50000000  0.00000000  0.45557136  1.0
