# generated using pymatgen
data_NaCl
_symmetry_space_group_name_H-M   'P 1'
_cell_length_a   6.58911866
_cell_length_b   6.77005139
_cell_length_c   6.54538043
_cell_angle_alpha   90.00000000
_cell_angle_beta   90.00000000
_cell_angle_gamma   90.00000000
_symmetry_Int_Tables_number   1
_chemical_formula_structural   NaCl
_chemical_formula_sum   'Na4 Cl4'
_cell_volume   291.98072834
_cell_formula_units_Z   4
loop_
 _symmetry_equiv_pos_site_id
 _symmetry_equiv_pos_as_xyz
  1  'x, y, z'
loop_
 _atom_site_type_symbol
 _atom_site_label
 _atom_site_symmetry_multiplicity
 _atom_site_fract_x
 _atom_site_fract_y
 _atom_site_fract_z
 _atom_site_occupancy
  Na  Na0  1  0.39452825  0.10164060  0.50069000  1.0
  Na  Na1  1  0.14973889  0.00066241  0.92552265  1.0
  Na  Na2  1  0.28490691  0.29518492  0.17543609  1.0
  Na  Na3  1  0.56764062  0.31980992  0.00751285  1.0
  Cl  Cl4  1  0.22842646  0.87567312  0.09755196  1.0
  Cl  Cl5  1  0.45168342  0.22963345  0.92240849  1.0
  Cl  Cl6  1  0.19873994  0.81363150  0.96816316  1.0
  Cl  Cl7  1  0.90549446  0.24164815  0.72675910  1.0
