# generated using pymatgen
data_NaCl
_symmetry_space_group_name_H-M   'P 1'
_cell_length_a   6.17538381
_cell_length_b   6.87007526
_cell_length_c   4.20029595
_cell_angle_alpha   90.00000000
_cell_angle_beta   90.00000000
_cell_angle_gamma   90.00000000
_symmetry_Int_Tables_number   1
_chemical_formula_structural   NaCl
_chemical_formula_sum   'Na4 Cl4'
_cell_volume   178.19903223
_cell_formula_units_Z   4
loop_
 _symmetry_equiv_pos_site_id
 _symmetry_equiv_pos_as_xyz
  1  'x, y, z'
loop_
 _atom_site_type_symbol
 _atom_site_label
 _atom_site_symmetry_multiplicity
 _atom_site_fract_x
 _atom_site_fract_y
 _atom_site_fract_z
 _atom_site_occupancy
  Na  Na0  1  0.35488621  0.67733022  0.61621759  1.0
  Na  Na1  1  0.38333213  0.06880848  0.57504827  1.0
  Na  Na2  1  0.48539898  0.68403386  0.18094223  1.0
  Na  Na3  1  0.98548034  0.72041694  0.91937666  1.0
  Cl  Cl4  1  0.25333138  0.31695623  0.59169456  1.0
  Cl  Cl5  1  0.34164800  0.32618535  0.78973208  1.0
  Cl  Cl6  1  0.06954698  0.66756253  0.29308303  1.0
  Cl  Cl7  1  0.34442294  0.30722099  0.22788823  1.0
