# generated using pymatgen
data_NaCl
_symmetry_space_group_name_H-M   'P 1'
_cell_length_a   4.54751344
_cell_length_b   20.23935830
_cell_length_c   2.00537608
_cell_angle_alpha   90.00000000
_cell_angle_beta   101.56958923
_cell_angle_gamma   90.00000000
_symmetry_Int_Tables_number   1
_chemical_formula_structural   NaCl
_chemical_formula_sum   'Na4 Cl4'
_cell_volume   180.82214515
_cell_formula_units_Z   4
loop_
 _symmetry_equiv_pos_site_id
 _symmetry_equiv_pos_as_xyz
  1  'x, y, z'
loop_
 _atom_site_type_symbol
 _atom_site_label
 _atom_site_symmetry_multiplicity
 _atom_site_fract_x
 _atom_site_fract_y
 _atom_site_fract_z
 _atom_site_occupancy
  Na  Na0  1  0.93182994  0.89733156  0.43879661  1.0
  Na  Na1  1  0.56356516  0.04030920  0.84771223  1.0
  Na  Na2  1  0.90166193  0.19020590  0.77047173  1.0
  Na  Na3  1  0.55289361  0.87066972  0.38547005  1.0
  Cl  Cl4  1  0.10660939  0.19489398  0.32401425  1.0
  Cl  Cl5  1  0.87914752  0.34591963  0.10180233  1.0
  Cl  Cl6  1  0.83836461  0.03167614  0.43759924  1.0
  Cl  Cl7  1  0.00089437  0.66335020  0.44812361  1.0
