# generated using pymatgen
data_NaCl
_symmetry_space_group_name_H-M   'P 1'
_cell_length_a   4.26969061
_cell_length_b   4.26969061
_cell_length_c   4.26969061
_cell_angle_alpha   90.00000000
_cell_angle_beta   90.00000000
_cell_angle_gamma   90.00000000
_symmetry_Int_Tables_number   1
_chemical_formula_structural   NaCl
_chemical_formula_sum   'Na4 Cl4'
_cell_volume   77.83756100
_cell_formula_units_Z   4
loop_
 _symmetry_equiv_pos_site_id
 _symmetry_equiv_pos_as_xyz
  1  'x, y, z'
loop_
 _atom_site_type_symbol
 _atom_site_label
 _atom_site_symmetry_multiplicity
 _atom_site_fract_x
 _atom_site_fract_y
 _atom_site_fract_z
 _atom_site_occupancy
  Na  Na0  1  0.98427266  0.98427266  0.98427266  1.0
  Na  Na1  1  0.19929230  0.69929230  0.80070770  1.0
  Na  Na2  1  0.10214083  0.39785917  0.60214083  1.0
  Na  Na3  1  0.77000120  0.22999880  0.72999880  1.0
  Cl  Cl4  1  0.15423034  0.15423034  0.15423034  1.0
  Cl  Cl5  1  0.40322424  0.90322424  0.59677576  1.0
  Cl  Cl6  1  0.28036363  0.21963637  0.78036363  1.0
  Cl  Cl7  1  0.24989299  0.75010701  0.25010701  1.0
