# generated using pymatgen
data_NaCl
_symmetry_space_group_name_H-M   'P 1'
_cell_length_a   5.31345134
_cell_length_b   5.31345134
_cell_length_c   4.88092818
_cell_angle_alpha   90.00000000
_cell_angle_beta   90.00000000
_cell_angle_gamma   90.00000000
_symmetry_Int_Tables_number   1
_chemical_formula_structural   NaCl
_chemical_formula_sum   'Na4 Cl4'
_cell_volume   137.80209898
_cell_formula_units_Z   4
loop_
 _symmetry_equiv_pos_site_id
 _symmetry_equiv_pos_as_xyz
  1  'x, y, z'
loop_
 _atom_site_type_symbol
 _atom_site_label
 _atom_site_symmetry_multiplicity
 _atom_site_fract_x
 _atom_site_fract_y
 _atom_site_fract_z
 _atom_site_occupancy
  Na  Na0  1  0.24527023  0.78507501  0.33837731  1.0
  Na  Na1  1  0.77136330  0.49875249  0.68471480  1.0
  Na  Na2  1  0.52842003  0.94227069  0.44099099  1.0
  Na  Na3  1  0.32277695  0.52111805  0.59070240  1.0
  Cl  Cl4  1  0.02944369  0.44897787  0.88599043  1.0
  Cl  Cl5  1  0.93782593  0.05120547  0.37241524  1.0
  Cl  Cl6  1  0.13185295  0.50945592  0.17667672  1.0
  Cl  Cl7  1  0.19228080  0.10606255  0.64568236  1.0
