# generated using pymatgen
data_NaCl
_symmetry_space_group_name_H-M   'P 1'
_cell_length_a   6.72867531
_cell_length_b   6.72867531
_cell_length_c   5.56095824
_cell_angle_alpha   90.00000000
_cell_angle_beta   90.00000000
_cell_angle_gamma   90.00000000
_symmetry_Int_Tables_number   1
_chemical_formula_structural   NaCl
_chemical_formula_sum   'Na4 Cl4'
_cell_volume   251.77278152
_cell_formula_units_Z   4
loop_
 _symmetry_equiv_pos_site_id
 _symmetry_equiv_pos_as_xyz
  1  'x, y, z'
loop_
 _atom_site_type_symbol
 _atom_site_label
 _atom_site_symmetry_multiplicity
 _atom_site_fract_x
 _atom_site_fract_y
 _atom_site_fract_z
 _atom_site_occupancy
  Na  Na0  1  0.43417670  0.43417670  0.00000000  1.0
  Na  Na1  1  0.47651977  0.47651977  0.50000000  1.0
  Na  Na2  1  0.62144181  0.37855819  0.25000000  1.0
  Na  Na3  1  0.94151078  0.05848922  0.75000000  1.0
  Cl  Cl4  1  0.17763971  0.17763971  0.00000000  1.0
  Cl  Cl5  1  0.85934680  0.85934680  0.50000000  1.0
  Cl  Cl6  1  0.94835266  0.05164734  0.25000000  1.0
  Cl  Cl7  1  0.33780254  0.66219746  0.75000000  1.0
