# generated using pymatgen
data_NaCl
_symmetry_space_group_name_H-M   'P 1'
_cell_length_a   6.68230250
_cell_length_b   6.68230250
_cell_length_c   6.68230250
_cell_angle_alpha   90.00000000
_cell_angle_beta   90.00000000
_cell_angle_gamma   90.00000000
_symmetry_Int_Tables_number   1
_chemical_formula_structural   NaCl
_chemical_formula_sum   'Na4 Cl4'
_cell_volume   298.38596748
_cell_formula_units_Z   4
loop_
 _symmetry_equiv_pos_site_id
 _symmetry_equiv_pos_as_xyz
  1  'x, y, z'
loop_
 _atom_site_type_symbol
 _atom_site_label
 _atom_site_symmetry_multiplicity
 _atom_site_fract_x
 _atom_site_fract_y
 _atom_site_fract_z
 _atom_site_occupancy
  Na  Na0  1  0.95386628  0.95386628  0.95386628  1.0
  Na  Na1  1  0.14511219  0.64511219  0.85488781  1.0
  Na  Na2  1  0.04491628  0.45508372  0.54491628  1.0
  Na  Na3  1  0.77379935  0.22620065  0.72620065  1.0
  Cl  Cl4  1  0.10726552  0.10726552  0.10726552  1.0
  Cl  Cl5  1  0.43614947  0.93614947  0.56385053  1.0
  Cl  Cl6  1  0.27655295  0.22344705  0.77655295  1.0
  Cl  Cl7  1  0.29563658  0.70436342  0.20436342  1.0
