# generated using pymatgen
data_NaCl
_symmetry_space_group_name_H-M   'P 1'
_cell_length_a   5.46991350
_cell_length_b   5.46991350
_cell_length_c   6.27285046
_cell_angle_alpha   90.00000000
_cell_angle_beta   90.00000000
_cell_angle_gamma   90.00000000
_symmetry_Int_Tables_number   1
_chemical_formula_structural   NaCl
_chemical_formula_sum   'Na4 Cl4'
_cell_volume   187.68339531
_cell_formula_units_Z   4
loop_
 _symmetry_equiv_pos_site_id
 _symmetry_equiv_pos_as_xyz
  1  'x, y, z'
loop_
 _atom_site_type_symbol
 _atom_site_label
 _atom_site_symmetry_multiplicity
 _atom_site_fract_x
 _atom_site_fract_y
 _atom_site_fract_z
 _atom_site_occupancy
  Na  Na0  1  0.96359208  0.75672921  0.33275064  1.0
  Na  Na1  1  0.02806217  0.22549810  0.59878655  1.0
  Na  Na2  1  0.76574397  0.88527555  0.06170200  1.0
  Na  Na3  1  0.37742641  0.66169551  0.38397574  1.0
  Cl  Cl4  1  0.04796771  0.14517174  0.89719145  1.0
  Cl  Cl5  1  0.91798214  0.24242457  0.40148694  1.0
  Cl  Cl6  1  0.86854279  0.83839766  0.61036526  1.0
  Cl  Cl7  1  0.15233347  0.03624321  0.22337352  1.0
