# generated using pymatgen
data_NaCl
_symmetry_space_group_name_H-M   'P 1'
_cell_length_a   3.66086775
_cell_length_b   3.66086775
_cell_length_c   7.16748120
_cell_angle_alpha   90.00000000
_cell_angle_beta   90.00000000
_cell_angle_gamma   90.00000000
_symmetry_Int_Tables_number   1
_chemical_formula_structural   NaCl
_chemical_formula_sum   'Na4 Cl4'
_cell_volume   96.05824390
_cell_formula_units_Z   4
loop_
 _symmetry_equiv_pos_site_id
 _symmetry_equiv_pos_as_xyz
  1  'x, y, z'
loop_
 _atom_site_type_symbol
 _atom_site_label
 _atom_site_symmetry_multiplicity
 _atom_site_fract_x
 _atom_site_fract_y
 _atom_site_fract_z
 _atom_site_occupancy
  Na  Na0  1  0.36522368  0.92480024  0.28426814  1.0
  Na  Na1  1  0.80592597  0.26156044  0.81363940  1.0
  Na  Na2  1  0.60621230  0.73472377  0.52766587  1.0
  Na  Na3  1  0.41225855  0.49514142  0.73033149  1.0
  Cl  Cl4  1  0.23720852  0.30320677  0.89525161  1.0
  Cl  Cl5  1  0.96546156  0.07911652  0.40427332  1.0
  Cl  Cl6  1  0.86298351  0.45613926  0.19938922  1.0
  Cl  Cl7  1  0.14385563  0.15182273  0.76944580  1.0
