# generated using pymatgen
data_NaCl
_symmetry_space_group_name_H-M   'P 1'
_cell_length_a   5.28982735
_cell_length_b   22.98902880
_cell_length_c   3.32829470
_cell_angle_alpha   90.00000000
_cell_angle_beta   90.00000000
_cell_angle_gamma   90.00000000
_symmetry_Int_Tables_number   1
_chemical_formula_structural   NaCl
_chemical_formula_sum   'Na4 Cl4'
_cell_volume   404.74723957
_cell_formula_units_Z   4
loop_
 _symmetry_equiv_pos_site_id
 _symmetry_equiv_pos_as_xyz
  1  'x, y, z'
loop_
 _atom_site_type_symbol
 _atom_site_label
 _atom_site_symmetry_multiplicity
 _atom_site_fract_x
 _atom_site_fract_y
 _atom_site_fract_z
 _atom_site_occupancy
  Na  Na0  1  0.00000000  0.00000000  0.51654343  1.0
  Na  Na1  1  0.50000000  0.50000000  0.88668032  1.0
  Na  Na2  1  0.00000000  0.50000000  0.86350741  1.0
  Na  Na3  1  0.50000000  0.00000000  0.48586756  1.0
  Cl  Cl4  1  0.12447005  0.25280810  0.85999015  1.0
  Cl  Cl5  1  0.92513858  0.32261060  0.96271936  1.0
  Cl  Cl6  1  0.57388117  0.71623813  0.69923867  1.0
  Cl  Cl7  1  0.44071594  0.29600374  0.60744790  1.0
