# generated using pymatgen
data_NaCl
_symmetry_space_group_name_H-M   'P 1'
_cell_length_a   5.23092914
_cell_length_b   5.23092914
_cell_length_c   13.11066005
_cell_angle_alpha   90.00000000
_cell_angle_beta   90.00000000
_cell_angle_gamma   90.00000000
_symmetry_Int_Tables_number   1
_chemical_formula_structural   NaCl
_chemical_formula_sum   'Na4 Cl4'
_cell_volume   358.74200454
_cell_formula_units_Z   4
loop_
 _symmetry_equiv_pos_site_id
 _symmetry_equiv_pos_as_xyz
  1  'x, y, z'
loop_
 _atom_site_type_symbol
 _atom_site_label
 _atom_site_symmetry_multiplicity
 _atom_site_fract_x
 _atom_site_fract_y
 _atom_site_fract_z
 _atom_site_occupancy
  Na  Na0  1  0.90351409  0.90351409  0.37500000  1.0
  Na  Na1  1  0.77367529  0.77367529  0.87500000  1.0
  Na  Na2  1  0.68082630  0.31917370  0.62500000  1.0
  Na  Na3  1  0.48173766  0.51826234  0.12500000  1.0
  Cl  Cl4  1  0.50000000  0.85618732  0.00000000  1.0
  Cl  Cl5  1  0.50000000  0.60900852  0.50000000  1.0
  Cl  Cl6  1  0.79211468  0.50000000  0.25000000  1.0
  Cl  Cl7  1  0.22337885  0.50000000  0.75000000  1.0
