# generated using pymatgen
data_NaCl
_symmetry_space_group_name_H-M   'P 1'
_cell_length_a   5.57191913
_cell_length_b   5.57191913
_cell_length_c   12.14615839
_cell_angle_alpha   90.00000000
_cell_angle_beta   90.00000000
_cell_angle_gamma   90.00000000
_symmetry_Int_Tables_number   1
_chemical_formula_structural   NaCl
_chemical_formula_sum   'Na4 Cl4'
_cell_volume   377.09306820
_cell_formula_units_Z   4
loop_
 _symmetry_equiv_pos_site_id
 _symmetry_equiv_pos_as_xyz
  1  'x, y, z'
loop_
 _atom_site_type_symbol
 _atom_site_label
 _atom_site_symmetry_multiplicity
 _atom_site_fract_x
 _atom_site_fract_y
 _atom_site_fract_z
 _atom_site_occupancy
  Na  Na0  1  0.96947896  0.39579110  0.80712230  1.0
  Na  Na1  1  0.35699425  0.29974131  0.95722585  1.0
  Na  Na2  1  0.95994568  0.23485992  0.11452234  1.0
  Na  Na3  1  0.17682987  0.80176995  0.29705968  1.0
  Cl  Cl4  1  0.33452816  0.72519791  0.34063476  1.0
  Cl  Cl5  1  0.81780643  0.40659643  0.13054673  1.0
  Cl  Cl6  1  0.68588636  0.68722218  0.25095697  1.0
  Cl  Cl7  1  0.26032071  0.52552124  0.20967562  1.0
