# generated using pymatgen
data_NaCl
_symmetry_space_group_name_H-M   'P 1'
_cell_length_a   5.85254245
_cell_length_b   22.39765032
_cell_length_c   2.03285004
_cell_angle_alpha   90.00000000
_cell_angle_beta   90.00000000
_cell_angle_gamma   90.00000000
_symmetry_Int_Tables_number   1
_chemical_formula_structural   NaCl
_chemical_formula_sum   'Na4 Cl4'
_cell_volume   266.47248690
_cell_formula_units_Z   4
loop_
 _symmetry_equiv_pos_site_id
 _symmetry_equiv_pos_as_xyz
  1  'x, y, z'
loop_
 _atom_site_type_symbol
 _atom_site_label
 _atom_site_symmetry_multiplicity
 _atom_site_fract_x
 _atom_site_fract_y
 _atom_site_fract_z
 _atom_site_occupancy
  Na  Na0  1  0.00000000  0.89701801  0.50500939  1.0
  Na  Na1  1  0.50000000  0.13676351  0.54537462  1.0
  Na  Na2  1  0.00000000  0.35524011  0.83800713  1.0
  Na  Na3  1  0.50000000  0.57063002  0.00561166  1.0
  Cl  Cl4  1  0.00000000  0.21335560  0.86478969  1.0
  Cl  Cl5  1  0.50000000  0.28588965  0.43840117  1.0
  Cl  Cl6  1  0.00000000  0.10840597  0.27189892  1.0
  Cl  Cl7  1  0.50000000  0.67068394  0.94691596  1.0
