# generated using pymatgen
data_NaCl
_symmetry_space_group_name_H-M   'P 1'
_cell_length_a   5.11140832
_cell_length_b   21.82740272
_cell_length_c   2.02969728
_cell_angle_alpha   90.00000000
_cell_angle_beta   90.00000000
_cell_angle_gamma   90.00000000
_symmetry_Int_Tables_number   1
_chemical_formula_structural   NaCl
_chemical_formula_sum   'Na4 Cl4'
_cell_volume   226.45082467
_cell_formula_units_Z   4
loop_
 _symmetry_equiv_pos_site_id
 _symmetry_equiv_pos_as_xyz
  1  'x, y, z'
loop_
 _atom_site_type_symbol
 _atom_site_label
 _atom_site_symmetry_multiplicity
 _atom_site_fract_x
 _atom_site_fract_y
 _atom_site_fract_z
 _atom_site_occupancy
  Na  Na0  1  0.95289268  0.93801835  0.40920338  1.0
  Na  Na1  1  0.00313248  0.31361587  0.54835011  1.0
  Na  Na2  1  0.35332006  0.24554039  0.78036057  1.0
  Na  Na3  1  0.22525701  0.02097571  0.98363406  1.0
  Cl  Cl4  1  0.12292067  0.36570971  0.84061089  1.0
  Cl  Cl5  1  0.98081873  0.43825948  0.35972431  1.0
  Cl  Cl6  1  0.39978349  0.34924314  0.39353778  1.0
  Cl  Cl7  1  0.63062109  0.74215969  0.01350313  1.0
