# generated using pymatgen
data_NaCl
_symmetry_space_group_name_H-M   'P 1'
_cell_length_a   6.00127367
_cell_length_b   6.00127367
_cell_length_c   5.35543337
_cell_angle_alpha   90.00000000
_cell_angle_beta   90.00000000
_cell_angle_gamma   90.00000000
_symmetry_Int_Tables_number   1
_chemical_formula_structural   NaCl
_chemical_formula_sum   'Na4 Cl4'
_cell_volume   192.87746267
_cell_formula_units_Z   4
loop_
 _symmetry_equiv_pos_site_id
 _symmetry_equiv_pos_as_xyz
  1  'x, y, z'
loop_
 _atom_site_type_symbol
 _atom_site_label
 _atom_site_symmetry_multiplicity
 _atom_site_fract_x
 _atom_site_fract_y
 _atom_site_fract_z
 _atom_site_occupancy
  Na  Na0  1  0.91600784  0.91542968  0.29506262  1.0
  Na  Na1  1  0.79033513  0.23269058  0.58044761  1.0
  Na  Na2  1  0.50353660  0.93582062  0.00689047  1.0
  Na  Na3  1  0.32788518  0.70434689  0.97789393  1.0
  Cl  Cl4  1  0.13125206  0.35557375  0.93494239  1.0
  Cl  Cl5  1  0.90403582  0.11935084  0.33076145  1.0
  Cl  Cl6  1  0.84277631  0.72427401  0.54994549  1.0
  Cl  Cl7  1  0.22675892  0.27501990  0.18162695  1.0
