# generated using pymatgen
data_NaCl
_symmetry_space_group_name_H-M   'P 1'
_cell_length_a   6.37184357
_cell_length_b   6.37184357
_cell_length_c   6.41626927
_cell_angle_alpha   90.00000000
_cell_angle_beta   90.00000000
_cell_angle_gamma   90.00000000
_symmetry_Int_Tables_number   1
_chemical_formula_structural   NaCl
_chemical_formula_sum   'Na4 Cl4'
_cell_volume   260.50303779
_cell_formula_units_Z   4
loop_
 _symmetry_equiv_pos_site_id
 _symmetry_equiv_pos_as_xyz
  1  'x, y, z'
loop_
 _atom_site_type_symbol
 _atom_site_label
 _atom_site_symmetry_multiplicity
 _atom_site_fract_x
 _atom_site_fract_y
 _atom_site_fract_z
 _atom_site_occupancy
  Na  Na0  1  0.95479637  0.80751854  0.33849771  1.0
  Na  Na1  1  0.03765997  0.23341503  0.61595750  1.0
  Na  Na2  1  0.72268985  0.91165740  0.58144480  1.0
  Na  Na3  1  0.37597232  0.63653071  0.45729417  1.0
  Cl  Cl4  1  0.10465679  0.39437233  0.92680168  1.0
  Cl  Cl5  1  0.93814965  0.48187845  0.39369904  1.0
  Cl  Cl6  1  0.89184919  0.70856169  0.09797444  1.0
  Cl  Cl7  1  0.21772508  0.17806944  0.73475167  1.0
