# generated using pymatgen
data_NaCl
_symmetry_space_group_name_H-M   'P 1'
_cell_length_a   4.98878302
_cell_length_b   4.98878302
_cell_length_c   4.98878302
_cell_angle_alpha   90.00000000
_cell_angle_beta   90.00000000
_cell_angle_gamma   90.00000000
_symmetry_Int_Tables_number   1
_chemical_formula_structural   NaCl
_chemical_formula_sum   'Na4 Cl4'
_cell_volume   124.16061240
_cell_formula_units_Z   4
loop_
 _symmetry_equiv_pos_site_id
 _symmetry_equiv_pos_as_xyz
  1  'x, y, z'
loop_
 _atom_site_type_symbol
 _atom_site_label
 _atom_site_symmetry_multiplicity
 _atom_site_fract_x
 _atom_site_fract_y
 _atom_site_fract_z
 _atom_site_occupancy
  Na  Na0  1  0.84992006  0.84992006  0.84992006  1.0
  Na  Na1  1  0.16314063  0.66314063  0.83685937  1.0
  Na  Na2  1  0.45057888  0.04942112  0.95057888  1.0
  Na  Na3  1  0.95437113  0.04562887  0.54562887  1.0
  Cl  Cl4  1  0.44034717  0.44034717  0.44034717  1.0
  Cl  Cl5  1  0.42364031  0.92364031  0.57635969  1.0
  Cl  Cl6  1  0.00041132  0.49958868  0.50041132  1.0
  Cl  Cl7  1  0.57052055  0.42947945  0.92947945  1.0
