# generated using pymatgen
data_NaCl
_symmetry_space_group_name_H-M   'P 1'
_cell_length_a   7.58046319
_cell_length_b   7.58046319
_cell_length_c   6.88621539
_cell_angle_alpha   90.00000000
_cell_angle_beta   90.00000000
_cell_angle_gamma   90.00000000
_symmetry_Int_Tables_number   1
_chemical_formula_structural   NaCl
_chemical_formula_sum   'Na4 Cl4'
_cell_volume   395.70550214
_cell_formula_units_Z   4
loop_
 _symmetry_equiv_pos_site_id
 _symmetry_equiv_pos_as_xyz
  1  'x, y, z'
loop_
 _atom_site_type_symbol
 _atom_site_label
 _atom_site_symmetry_multiplicity
 _atom_site_fract_x
 _atom_site_fract_y
 _atom_site_fract_z
 _atom_site_occupancy
  Na  Na0  1  0.24156140  0.82432925  0.27154149  1.0
  Na  Na1  1  0.89864515  0.58108842  0.57131040  1.0
  Na  Na2  1  0.57428111  0.98517011  0.59994496  1.0
  Na  Na3  1  0.34780365  0.45214054  0.69458881  1.0
  Cl  Cl4  1  0.14611792  0.39761846  0.90914327  1.0
  Cl  Cl5  1  0.39000947  0.14872046  0.49742015  1.0
  Cl  Cl6  1  0.58249347  0.60153514  0.13728784  1.0
  Cl  Cl7  1  0.25724509  0.23773913  0.61875067  1.0
