# generated using pymatgen
data_NaCl
_symmetry_space_group_name_H-M   'P 1'
_cell_length_a   4.38251110
_cell_length_b   17.52742064
_cell_length_c   5.05294151
_cell_angle_alpha   90.00000000
_cell_angle_beta   66.91182912
_cell_angle_gamma   90.00000000
_symmetry_Int_Tables_number   1
_chemical_formula_structural   NaCl
_chemical_formula_sum   'Na4 Cl4'
_cell_volume   357.04840246
_cell_formula_units_Z   4
loop_
 _symmetry_equiv_pos_site_id
 _symmetry_equiv_pos_as_xyz
  1  'x, y, z'
loop_
 _atom_site_type_symbol
 _atom_site_label
 _atom_site_symmetry_multiplicity
 _atom_site_fract_x
 _atom_site_fract_y
 _atom_site_fract_z
 _atom_site_occupancy
  Na  Na0  1  0.85681138  0.84992698  0.45899495  1.0
  Na  Na1  1  0.43915049  0.35717993  0.61762491  1.0
  Na  Na2  1  0.92657560  0.62105193  0.60287717  1.0
  Na  Na3  1  0.39005077  0.58354567  0.44814420  1.0
  Cl  Cl4  1  0.30131647  0.29591190  0.85379830  1.0
  Cl  Cl5  1  0.00104339  0.11588294  0.48108177  1.0
  Cl  Cl6  1  0.77596891  0.10502402  0.27432100  1.0
  Cl  Cl7  1  0.96647628  0.94467872  0.62468958  1.0
