# generated using pymatgen
data_NaCl
_symmetry_space_group_name_H-M   'P 1'
_cell_length_a   6.99816356
_cell_length_b   6.99816356
_cell_length_c   6.99816356
_cell_angle_alpha   90.00000000
_cell_angle_beta   90.00000000
_cell_angle_gamma   90.00000000
_symmetry_Int_Tables_number   1
_chemical_formula_structural   NaCl
_chemical_formula_sum   'Na4 Cl4'
_cell_volume   342.73011414
_cell_formula_units_Z   4
loop_
 _symmetry_equiv_pos_site_id
 _symmetry_equiv_pos_as_xyz
  1  'x, y, z'
loop_
 _atom_site_type_symbol
 _atom_site_label
 _atom_site_symmetry_multiplicity
 _atom_site_fract_x
 _atom_site_fract_y
 _atom_site_fract_z
 _atom_site_occupancy
  Na  Na0  1  0.36315663  0.36315663  0.36315663  1.0
  Na  Na1  1  0.03621736  0.53621736  0.96378264  1.0
  Na  Na2  1  0.03728891  0.46271109  0.53728891  1.0
  Na  Na3  1  0.33487710  0.66512290  0.16512290  1.0
  Cl  Cl4  1  0.06873333  0.06873333  0.06873333  1.0
  Cl  Cl5  1  0.31388987  0.81388987  0.68611013  1.0
  Cl  Cl6  1  0.25256597  0.24743403  0.75256597  1.0
  Cl  Cl7  1  0.13116135  0.86883865  0.36883865  1.0
