# generated using pymatgen
data_NaCl
_symmetry_space_group_name_H-M   'P 1'
_cell_length_a   7.23183040
_cell_length_b   8.93034690
_cell_length_c   2.43522347
_cell_angle_alpha   90.00000000
_cell_angle_beta   38.30695377
_cell_angle_gamma   90.00000000
_symmetry_Int_Tables_number   1
_chemical_formula_structural   NaCl
_chemical_formula_sum   'Na4 Cl4'
_cell_volume   97.48975845
_cell_formula_units_Z   4
loop_
 _symmetry_equiv_pos_site_id
 _symmetry_equiv_pos_as_xyz
  1  'x, y, z'
loop_
 _atom_site_type_symbol
 _atom_site_label
 _atom_site_symmetry_multiplicity
 _atom_site_fract_x
 _atom_site_fract_y
 _atom_site_fract_z
 _atom_site_occupancy
  Na  Na0  1  0.58499981  0.71107645  0.71661851  1.0
  Na  Na1  1  0.30626247  0.19950228  0.71668967  1.0
  Na  Na2  1  0.23455092  0.73704639  0.40557649  1.0
  Na  Na3  1  0.07524712  0.96252561  0.69744366  1.0
  Cl  Cl4  1  0.78943144  0.08044858  0.58131740  1.0
  Cl  Cl5  1  0.32757638  0.36297005  0.99036082  1.0
  Cl  Cl6  1  0.28625292  0.05589920  0.01995215  1.0
  Cl  Cl7  1  0.09869133  0.45106177  0.13333138  1.0
