# generated using pymatgen
data_NaCl
_symmetry_space_group_name_H-M   'P 1'
_cell_length_a   6.48017939
_cell_length_b   6.48017939
_cell_length_c   7.47505068
_cell_angle_alpha   90.00000000
_cell_angle_beta   90.00000000
_cell_angle_gamma   90.00000000
_symmetry_Int_Tables_number   1
_chemical_formula_structural   NaCl
_chemical_formula_sum   'Na4 Cl4'
_cell_volume   313.89774702
_cell_formula_units_Z   4
loop_
 _symmetry_equiv_pos_site_id
 _symmetry_equiv_pos_as_xyz
  1  'x, y, z'
loop_
 _atom_site_type_symbol
 _atom_site_label
 _atom_site_symmetry_multiplicity
 _atom_site_fract_x
 _atom_site_fract_y
 _atom_site_fract_z
 _atom_site_occupancy
  Na  Na0  1  0.86210932  0.71150723  0.53750375  1.0
  Na  Na1  1  0.41607953  0.02836214  0.60454035  1.0
  Na  Na2  1  0.81635579  0.95485913  0.11081359  1.0
  Na  Na3  1  0.37874089  0.87581216  0.43940637  1.0
  Cl  Cl4  1  0.63901980  0.21440454  0.75193424  1.0
  Cl  Cl5  1  0.81891876  0.27157074  0.97056935  1.0
  Cl  Cl6  1  0.88688029  0.87754633  0.75308296  1.0
  Cl  Cl7  1  0.01686612  0.14320945  0.86204415  1.0
