# generated using pymatgen
data_NaCl
_symmetry_space_group_name_H-M   'P 1'
_cell_length_a   2.57328862
_cell_length_b   8.39956068
_cell_length_c   18.75037174
_cell_angle_alpha   90.00000000
_cell_angle_beta   90.00000000
_cell_angle_gamma   90.00000000
_symmetry_Int_Tables_number   1
_chemical_formula_structural   NaCl
_chemical_formula_sum   'Na4 Cl4'
_cell_volume   405.27979580
_cell_formula_units_Z   4
loop_
 _symmetry_equiv_pos_site_id
 _symmetry_equiv_pos_as_xyz
  1  'x, y, z'
loop_
 _atom_site_type_symbol
 _atom_site_label
 _atom_site_symmetry_multiplicity
 _atom_site_fract_x
 _atom_site_fract_y
 _atom_site_fract_z
 _atom_site_occupancy
  Na  Na0  1  0.63123916  0.71003994  0.61867951  1.0
  Na  Na1  1  0.66937221  0.14872622  0.64573152  1.0
  Na  Na2  1  0.84821697  0.16635805  0.35616728  1.0
  Na  Na3  1  0.20665229  0.82195023  0.69367817  1.0
  Cl  Cl4  1  0.28075935  0.18796939  0.79974169  1.0
  Cl  Cl5  1  0.75229011  0.24397916  0.90428545  1.0
  Cl  Cl6  1  0.15909058  0.37782206  0.22827599  1.0
  Cl  Cl7  1  0.61549017  0.70376928  0.31468551  1.0
