# generated using pymatgen
data_NaCl
_symmetry_space_group_name_H-M   'P 1'
_cell_length_a   5.70643322
_cell_length_b   5.70643322
_cell_length_c   3.67807329
_cell_angle_alpha   90.00000000
_cell_angle_beta   90.00000000
_cell_angle_gamma   90.00000000
_symmetry_Int_Tables_number   1
_chemical_formula_structural   NaCl
_chemical_formula_sum   'Na4 Cl4'
_cell_volume   119.77049856
_cell_formula_units_Z   4
loop_
 _symmetry_equiv_pos_site_id
 _symmetry_equiv_pos_as_xyz
  1  'x, y, z'
loop_
 _atom_site_type_symbol
 _atom_site_label
 _atom_site_symmetry_multiplicity
 _atom_site_fract_x
 _atom_site_fract_y
 _atom_site_fract_z
 _atom_site_occupancy
  Na  Na0  1  0.20808242  0.91276261  0.00549009  1.0
  Na  Na1  1  0.91006011  0.38999820  0.79228168  1.0
  Na  Na2  1  0.47712835  0.99851179  0.74655079  1.0
  Na  Na3  1  0.15947044  0.30995191  0.77251915  1.0
  Cl  Cl4  1  0.03980917  0.68392844  0.94503564  1.0
  Cl  Cl5  1  0.83343710  0.07385082  0.26616456  1.0
  Cl  Cl6  1  0.69953209  0.49641727  0.29990208  1.0
  Cl  Cl7  1  0.18321430  0.04557760  0.75721518  1.0
