# generated using pymatgen
data_NaCl
_symmetry_space_group_name_H-M   'P 1'
_cell_length_a   7.00111298
_cell_length_b   13.93222978
_cell_length_c   3.85900007
_cell_angle_alpha   90.00000000
_cell_angle_beta   90.00000000
_cell_angle_gamma   90.00000000
_symmetry_Int_Tables_number   1
_chemical_formula_structural   NaCl
_chemical_formula_sum   'Na4 Cl4'
_cell_volume   376.41116866
_cell_formula_units_Z   4
loop_
 _symmetry_equiv_pos_site_id
 _symmetry_equiv_pos_as_xyz
  1  'x, y, z'
loop_
 _atom_site_type_symbol
 _atom_site_label
 _atom_site_symmetry_multiplicity
 _atom_site_fract_x
 _atom_site_fract_y
 _atom_site_fract_z
 _atom_site_occupancy
  Na  Na0  1  0.31751242  0.03865617  0.88302901  1.0
  Na  Na1  1  0.52469771  0.12889415  0.14345943  1.0
  Na  Na2  1  0.90633214  0.46135956  0.30542962  1.0
  Na  Na3  1  0.84142836  0.24475437  0.87390978  1.0
  Cl  Cl4  1  0.00000000  0.03576100  0.65409071  1.0
  Cl  Cl5  1  0.00000000  0.86203187  0.75303920  1.0
  Cl  Cl6  1  0.50000000  0.50456109  0.74866620  1.0
  Cl  Cl7  1  0.50000000  0.89335450  0.02011162  1.0
