# generated using pymatgen
data_NaCl
_symmetry_space_group_name_H-M   'P 1'
_cell_length_a   4.51780548
_cell_length_b   4.51780548
_cell_length_c   15.41309989
_cell_angle_alpha   90.00000000
_cell_angle_beta   90.00000000
_cell_angle_gamma   90.00000000
_symmetry_Int_Tables_number   1
_chemical_formula_structural   NaCl
_chemical_formula_sum   'Na4 Cl4'
_cell_volume   314.59009804
_cell_formula_units_Z   4
loop_
 _symmetry_equiv_pos_site_id
 _symmetry_equiv_pos_as_xyz
  1  'x, y, z'
loop_
 _atom_site_type_symbol
 _atom_site_label
 _atom_site_symmetry_multiplicity
 _atom_site_fract_x
 _atom_site_fract_y
 _atom_site_fract_z
 _atom_site_occupancy
  Na  Na0  1  0.67320961  0.17305398  0.88161851  1.0
  Na  Na1  1  0.46048662  0.61236231  0.06290907  1.0
  Na  Na2  1  0.14563949  0.22967124  0.51406899  1.0
  Na  Na3  1  0.23224705  0.89601439  0.73651016  1.0
  Cl  Cl4  1  0.93167413  0.28879069  0.69370636  1.0
  Cl  Cl5  1  0.74258601  0.73087762  0.26430125  1.0
  Cl  Cl6  1  0.24273842  0.66951501  0.84120218  1.0
  Cl  Cl7  1  0.27200715  0.03274133  0.81835579  1.0
