# generated using pymatgen
data_NaCl
_symmetry_space_group_name_H-M   'P 1'
_cell_length_a   4.59757944
_cell_length_b   10.81355632
_cell_length_c   6.59895971
_cell_angle_alpha   90.00000000
_cell_angle_beta   80.42307925
_cell_angle_gamma   90.00000000
_symmetry_Int_Tables_number   1
_chemical_formula_structural   NaCl
_chemical_formula_sum   'Na4 Cl4'
_cell_volume   323.50275756
_cell_formula_units_Z   4
loop_
 _symmetry_equiv_pos_site_id
 _symmetry_equiv_pos_as_xyz
  1  'x, y, z'
loop_
 _atom_site_type_symbol
 _atom_site_label
 _atom_site_symmetry_multiplicity
 _atom_site_fract_x
 _atom_site_fract_y
 _atom_site_fract_z
 _atom_site_occupancy
  Na  Na0  1  0.50000000  0.00000000  0.00000000  1.0
  Na  Na1  1  0.50000000  0.50000000  0.50000000  1.0
  Na  Na2  1  0.50000000  0.00000000  0.50000000  1.0
  Na  Na3  1  0.50000000  0.50000000  0.00000000  1.0
  Cl  Cl4  1  0.67877572  0.15608465  0.75536399  1.0
  Cl  Cl5  1  0.71364508  0.83081256  0.02491515  1.0
  Cl  Cl6  1  0.33761327  0.19551409  0.30756261  1.0
  Cl  Cl7  1  0.71750261  0.12590561  0.26001652  1.0
