# generated using pymatgen
data_NaCl
_symmetry_space_group_name_H-M   'P 1'
_cell_length_a   4.88628338
_cell_length_b   13.53872561
_cell_length_c   5.37382227
_cell_angle_alpha   90.00000000
_cell_angle_beta   90.00000000
_cell_angle_gamma   90.00000000
_symmetry_Int_Tables_number   1
_chemical_formula_structural   NaCl
_chemical_formula_sum   'Na4 Cl4'
_cell_volume   355.50010679
_cell_formula_units_Z   4
loop_
 _symmetry_equiv_pos_site_id
 _symmetry_equiv_pos_as_xyz
  1  'x, y, z'
loop_
 _atom_site_type_symbol
 _atom_site_label
 _atom_site_symmetry_multiplicity
 _atom_site_fract_x
 _atom_site_fract_y
 _atom_site_fract_z
 _atom_site_occupancy
  Na  Na0  1  0.00000000  0.31626912  0.93682748  1.0
  Na  Na1  1  0.50000000  0.45510805  0.04571947  1.0
  Na  Na2  1  0.00000000  0.91716517  0.66608221  1.0
  Na  Na3  1  0.50000000  0.85709057  0.71657947  1.0
  Cl  Cl4  1  0.71417285  0.27950086  0.71993708  1.0
  Cl  Cl5  1  0.24587524  0.63663679  0.08186160  1.0
  Cl  Cl6  1  0.64471441  0.28306623  0.87093172  1.0
  Cl  Cl7  1  0.04209274  0.22510423  0.23463467  1.0
