# generated using pymatgen
data_NaCl
_symmetry_space_group_name_H-M   'P 1'
_cell_length_a   6.96973377
_cell_length_b   6.96973377
_cell_length_c   6.96973377
_cell_angle_alpha   90.00000000
_cell_angle_beta   90.00000000
_cell_angle_gamma   90.00000000
_symmetry_Int_Tables_number   1
_chemical_formula_structural   NaCl
_chemical_formula_sum   'Na4 Cl4'
_cell_volume   338.57007340
_cell_formula_units_Z   4
loop_
 _symmetry_equiv_pos_site_id
 _symmetry_equiv_pos_as_xyz
  1  'x, y, z'
loop_
 _atom_site_type_symbol
 _atom_site_label
 _atom_site_symmetry_multiplicity
 _atom_site_fract_x
 _atom_site_fract_y
 _atom_site_fract_z
 _atom_site_occupancy
  Na  Na0  1  0.59179178  0.59179178  0.59179178  1.0
  Na  Na1  1  0.01563083  0.51563083  0.98436917  1.0
  Na  Na2  1  0.76405228  0.73594772  0.26405228  1.0
  Na  Na3  1  0.68192112  0.31807888  0.81807888  1.0
  Cl  Cl4  1  0.98538373  0.98538373  0.98538373  1.0
  Cl  Cl5  1  0.32124502  0.82124502  0.67875498  1.0
  Cl  Cl6  1  0.21766811  0.28233189  0.71766811  1.0
  Cl  Cl7  1  0.38926792  0.61073208  0.11073208  1.0
