# generated using pymatgen
data_NaCl
_symmetry_space_group_name_H-M   'P 1'
_cell_length_a   7.10794363
_cell_length_b   8.18486222
_cell_length_c   4.29238019
_cell_angle_alpha   90.00000000
_cell_angle_beta   98.38514834
_cell_angle_gamma   90.00000000
_symmetry_Int_Tables_number   1
_chemical_formula_structural   NaCl
_chemical_formula_sum   'Na4 Cl4'
_cell_volume   247.05065050
_cell_formula_units_Z   4
loop_
 _symmetry_equiv_pos_site_id
 _symmetry_equiv_pos_as_xyz
  1  'x, y, z'
loop_
 _atom_site_type_symbol
 _atom_site_label
 _atom_site_symmetry_multiplicity
 _atom_site_fract_x
 _atom_site_fract_y
 _atom_site_fract_z
 _atom_site_occupancy
  Na  Na0  1  0.51938836  0.16548635  0.84083921  1.0
  Na  Na1  1  0.38348075  0.85656263  0.24251180  1.0
  Na  Na2  1  0.39022556  0.70668276  0.72958017  1.0
  Na  Na3  1  0.79194751  0.08990627  0.03548209  1.0
  Cl  Cl4  1  0.70264584  0.21829019  0.77782496  1.0
  Cl  Cl5  1  0.57537531  0.96018028  0.43157653  1.0
  Cl  Cl6  1  0.64433172  0.90854837  0.73107578  1.0
  Cl  Cl7  1  0.19200603  0.72429100  0.30658276  1.0
