# generated using pymatgen
data_NaCl
_symmetry_space_group_name_H-M   'P 1'
_cell_length_a   8.90611931
_cell_length_b   11.99389864
_cell_length_c   6.45054855
_cell_angle_alpha   90.00000000
_cell_angle_beta   144.14142408
_cell_angle_gamma   90.00000000
_symmetry_Int_Tables_number   1
_chemical_formula_structural   NaCl
_chemical_formula_sum   'Na4 Cl4'
_cell_volume   403.63138712
_cell_formula_units_Z   4
loop_
 _symmetry_equiv_pos_site_id
 _symmetry_equiv_pos_as_xyz
  1  'x, y, z'
loop_
 _atom_site_type_symbol
 _atom_site_label
 _atom_site_symmetry_multiplicity
 _atom_site_fract_x
 _atom_site_fract_y
 _atom_site_fract_z
 _atom_site_occupancy
  Na  Na0  1  0.15543293  0.30226038  0.82645121  1.0
  Na  Na1  1  0.57483288  0.11058539  0.94491743  1.0
  Na  Na2  1  0.01277300  0.21736571  0.57137506  1.0
  Na  Na3  1  0.66275269  0.39447066  0.84881170  1.0
  Cl  Cl4  1  0.65715687  0.00000000  0.72983718  1.0
  Cl  Cl5  1  0.24479897  0.50000000  0.41522527  1.0
  Cl  Cl6  1  0.17123451  0.00000000  0.97184976  1.0
  Cl  Cl7  1  0.29347526  0.50000000  0.91159121  1.0
