# generated using pymatgen
data_NaCl
_symmetry_space_group_name_H-M   'P 1'
_cell_length_a   4.93127805
_cell_length_b   3.46177191
_cell_length_c   15.88967755
_cell_angle_alpha   90.00000000
_cell_angle_beta   114.19175331
_cell_angle_gamma   90.00000000
_symmetry_Int_Tables_number   1
_chemical_formula_structural   NaCl
_chemical_formula_sum   'Na4 Cl4'
_cell_volume   247.43045041
_cell_formula_units_Z   4
loop_
 _symmetry_equiv_pos_site_id
 _symmetry_equiv_pos_as_xyz
  1  'x, y, z'
loop_
 _atom_site_type_symbol
 _atom_site_label
 _atom_site_symmetry_multiplicity
 _atom_site_fract_x
 _atom_site_fract_y
 _atom_site_fract_z
 _atom_site_occupancy
  Na  Na0  1  0.81381957  0.29602359  0.93620386  1.0
  Na  Na1  1  0.46658301  0.11137141  0.33515053  1.0
  Na  Na2  1  0.22537981  0.90094462  0.75936776  1.0
  Na  Na3  1  0.87196863  0.67289087  0.44758045  1.0
  Cl  Cl4  1  0.86595583  0.28187272  0.76280379  1.0
  Cl  Cl5  1  0.79444566  0.70913374  0.20940419  1.0
  Cl  Cl6  1  0.73508709  0.91084418  0.14328173  1.0
  Cl  Cl7  1  0.10192127  0.74463360  0.60051560  1.0
