# generated using pymatgen
data_NaCl
_symmetry_space_group_name_H-M   'P 1'
_cell_length_a   5.06338172
_cell_length_b   4.24326116
_cell_length_c   18.15467914
_cell_angle_alpha   90.00000000
_cell_angle_beta   90.00000000
_cell_angle_gamma   90.00000000
_symmetry_Int_Tables_number   1
_chemical_formula_structural   NaCl
_chemical_formula_sum   'Na4 Cl4'
_cell_volume   390.05783798
_cell_formula_units_Z   4
loop_
 _symmetry_equiv_pos_site_id
 _symmetry_equiv_pos_as_xyz
  1  'x, y, z'
loop_
 _atom_site_type_symbol
 _atom_site_label
 _atom_site_symmetry_multiplicity
 _atom_site_fract_x
 _atom_site_fract_y
 _atom_site_fract_z
 _atom_site_occupancy
  Na  Na0  1  0.00000000  0.00000000  0.83934216  1.0
  Na  Na1  1  0.50000000  0.50000000  0.42604263  1.0
  Na  Na2  1  0.00000000  0.50000000  0.79581009  1.0
  Na  Na3  1  0.50000000  0.00000000  0.18610190  1.0
  Cl  Cl4  1  0.92183735  0.34364518  0.72956283  1.0
  Cl  Cl5  1  0.75419794  0.73680247  0.69688953  1.0
  Cl  Cl6  1  0.89824434  0.49850055  0.96880424  1.0
  Cl  Cl7  1  0.44042362  0.29767281  0.52621777  1.0
