# generated using pymatgen
data_NaCl
_symmetry_space_group_name_H-M   'P 1'
_cell_length_a   4.59068190
_cell_length_b   4.59068190
_cell_length_c   4.59068190
_cell_angle_alpha   90.00000000
_cell_angle_beta   90.00000000
_cell_angle_gamma   90.00000000
_symmetry_Int_Tables_number   1
_chemical_formula_structural   NaCl
_chemical_formula_sum   'Na4 Cl4'
_cell_volume   96.74568442
_cell_formula_units_Z   4
loop_
 _symmetry_equiv_pos_site_id
 _symmetry_equiv_pos_as_xyz
  1  'x, y, z'
loop_
 _atom_site_type_symbol
 _atom_site_label
 _atom_site_symmetry_multiplicity
 _atom_site_fract_x
 _atom_site_fract_y
 _atom_site_fract_z
 _atom_site_occupancy
  Na  Na0  1  0.67489784  0.67489784  0.67489784  1.0
  Na  Na1  1  0.91073582  0.41073582  0.08926418  1.0
  Na  Na2  1  0.68201121  0.81798879  0.18201121  1.0
  Na  Na3  1  0.58500208  0.41499792  0.91499792  1.0
  Cl  Cl4  1  0.82424784  0.82424784  0.82424784  1.0
  Cl  Cl5  1  0.26848967  0.76848967  0.73151033  1.0
  Cl  Cl6  1  0.21168772  0.28831228  0.71168772  1.0
  Cl  Cl7  1  0.32708548  0.67291452  0.17291452  1.0
