# generated using pymatgen
data_NaCl
_symmetry_space_group_name_H-M   'P 1'
_cell_length_a   4.87274913
_cell_length_b   4.87274913
_cell_length_c   15.92898252
_cell_angle_alpha   90.00000000
_cell_angle_beta   90.00000000
_cell_angle_gamma   90.00000000
_symmetry_Int_Tables_number   1
_chemical_formula_structural   NaCl
_chemical_formula_sum   'Na4 Cl4'
_cell_volume   378.21272873
_cell_formula_units_Z   4
loop_
 _symmetry_equiv_pos_site_id
 _symmetry_equiv_pos_as_xyz
  1  'x, y, z'
loop_
 _atom_site_type_symbol
 _atom_site_label
 _atom_site_symmetry_multiplicity
 _atom_site_fract_x
 _atom_site_fract_y
 _atom_site_fract_z
 _atom_site_occupancy
  Na  Na0  1  0.29727721  0.40619366  0.87276328  1.0
  Na  Na1  1  0.55878461  0.61011245  0.47080589  1.0
  Na  Na2  1  0.17139515  0.11906030  0.56870311  1.0
  Na  Na3  1  0.36908228  0.79060624  0.58597511  1.0
  Cl  Cl4  1  0.99350022  0.11545863  0.68549057  1.0
  Cl  Cl5  1  0.26846179  0.75380838  0.67967036  1.0
  Cl  Cl6  1  0.61798809  0.58123339  0.07324658  1.0
  Cl  Cl7  1  0.16106368  0.29429828  0.68395941  1.0
