# generated using pymatgen
data_NaCl
_symmetry_space_group_name_H-M   'P 1'
_cell_length_a   3.59164199
_cell_length_b   3.59164199
_cell_length_c   19.41030945
_cell_angle_alpha   90.00000000
_cell_angle_beta   90.00000000
_cell_angle_gamma   90.00000000
_symmetry_Int_Tables_number   1
_chemical_formula_structural   NaCl
_chemical_formula_sum   'Na4 Cl4'
_cell_volume   250.39089917
_cell_formula_units_Z   4
loop_
 _symmetry_equiv_pos_site_id
 _symmetry_equiv_pos_as_xyz
  1  'x, y, z'
loop_
 _atom_site_type_symbol
 _atom_site_label
 _atom_site_symmetry_multiplicity
 _atom_site_fract_x
 _atom_site_fract_y
 _atom_site_fract_z
 _atom_site_occupancy
  Na  Na0  1  0.65624776  0.23119922  0.98259767  1.0
  Na  Na1  1  0.09711663  0.37544791  0.11593768  1.0
  Na  Na2  1  0.10781926  0.46807247  0.45552456  1.0
  Na  Na3  1  0.33015896  0.44622557  0.74496802  1.0
  Cl  Cl4  1  0.81582246  0.21941327  0.70570661  1.0
  Cl  Cl5  1  0.77923809  0.62126308  0.27145937  1.0
  Cl  Cl6  1  0.24821490  0.72221696  0.78511749  1.0
  Cl  Cl7  1  0.19772321  0.14992866  0.67806898  1.0
