# generated using pymatgen
data_NaCl
_symmetry_space_group_name_H-M   'P 1'
_cell_length_a   6.06665586
_cell_length_b   4.14803954
_cell_length_c   14.24973218
_cell_angle_alpha   90.00000000
_cell_angle_beta   90.00000000
_cell_angle_gamma   90.00000000
_symmetry_Int_Tables_number   1
_chemical_formula_structural   NaCl
_chemical_formula_sum   'Na4 Cl4'
_cell_volume   358.59063984
_cell_formula_units_Z   4
loop_
 _symmetry_equiv_pos_site_id
 _symmetry_equiv_pos_as_xyz
  1  'x, y, z'
loop_
 _atom_site_type_symbol
 _atom_site_label
 _atom_site_symmetry_multiplicity
 _atom_site_fract_x
 _atom_site_fract_y
 _atom_site_fract_z
 _atom_site_occupancy
  Na  Na0  1  0.67636172  0.26427379  0.24910490  1.0
  Na  Na1  1  0.37279558  0.39247222  0.06688454  1.0
  Na  Na2  1  0.72324673  0.50028835  0.65845765  1.0
  Na  Na3  1  0.20636704  0.74774711  0.01311848  1.0
  Cl  Cl4  1  0.90757492  0.30501873  0.81390293  1.0
  Cl  Cl5  1  0.77265477  0.61580488  0.22376130  1.0
  Cl  Cl6  1  0.45168967  0.79861909  0.09288260  1.0
  Cl  Cl7  1  0.55550933  0.73606235  0.00469732  1.0
