# generated using pymatgen
data_NaCl
_symmetry_space_group_name_H-M   'P 1'
_cell_length_a   5.43287042
_cell_length_b   4.19380136
_cell_length_c   10.53718492
_cell_angle_alpha   90.00000000
_cell_angle_beta   90.00000000
_cell_angle_gamma   90.00000000
_symmetry_Int_Tables_number   1
_chemical_formula_structural   NaCl
_chemical_formula_sum   'Na4 Cl4'
_cell_volume   240.08321856
_cell_formula_units_Z   4
loop_
 _symmetry_equiv_pos_site_id
 _symmetry_equiv_pos_as_xyz
  1  'x, y, z'
loop_
 _atom_site_type_symbol
 _atom_site_label
 _atom_site_symmetry_multiplicity
 _atom_site_fract_x
 _atom_site_fract_y
 _atom_site_fract_z
 _atom_site_occupancy
  Na  Na0  1  0.63235443  0.27127379  0.90443802  1.0
  Na  Na1  1  0.96586434  0.46957245  0.25789693  1.0
  Na  Na2  1  0.73653362  0.36355113  0.74473550  1.0
  Na  Na3  1  0.63282648  0.22633923  0.45681574  1.0
  Cl  Cl4  1  0.97799374  0.25196913  0.75890796  1.0
  Cl  Cl5  1  0.28344472  0.67065633  0.25418937  1.0
  Cl  Cl6  1  0.15938919  0.21854990  0.37405860  1.0
  Cl  Cl7  1  0.35865891  0.96156152  0.47543289  1.0
