# generated using pymatgen
data_NaCl
_symmetry_space_group_name_H-M   'P 1'
_cell_length_a   4.87597831
_cell_length_b   4.87597831
_cell_length_c   18.22836379
_cell_angle_alpha   90.00000000
_cell_angle_beta   90.00000000
_cell_angle_gamma   120.00000000
_symmetry_Int_Tables_number   1
_chemical_formula_structural   NaCl
_chemical_formula_sum   'Na4 Cl4'
_cell_volume   375.32012231
_cell_formula_units_Z   4
loop_
 _symmetry_equiv_pos_site_id
 _symmetry_equiv_pos_as_xyz
  1  'x, y, z'
loop_
 _atom_site_type_symbol
 _atom_site_label
 _atom_site_symmetry_multiplicity
 _atom_site_fract_x
 _atom_site_fract_y
 _atom_site_fract_z
 _atom_site_occupancy
  Na  Na0  1  0.00000000  0.00000000  0.95619426  1.0
  Na  Na1  1  0.00000000  0.00000000  0.24316843  1.0
  Na  Na2  1  0.33333333  0.66666667  0.80284678  1.0
  Na  Na3  1  0.66666667  0.33333333  0.07115808  1.0
  Cl  Cl4  1  0.33333333  0.66666667  0.60876529  1.0
  Cl  Cl5  1  0.66666667  0.33333333  0.00948347  1.0
  Cl  Cl6  1  0.33333333  0.66666667  0.11990822  1.0
  Cl  Cl7  1  0.66666667  0.33333333  0.61223777  1.0
