# generated using pymatgen
data_NaCl
_symmetry_space_group_name_H-M   'P 1'
_cell_length_a   4.97274974
_cell_length_b   6.27291142
_cell_length_c   12.79340555
_cell_angle_alpha   90.00000000
_cell_angle_beta   90.00000000
_cell_angle_gamma   90.00000000
_symmetry_Int_Tables_number   1
_chemical_formula_structural   NaCl
_chemical_formula_sum   'Na4 Cl4'
_cell_volume   399.07261374
_cell_formula_units_Z   4
loop_
 _symmetry_equiv_pos_site_id
 _symmetry_equiv_pos_as_xyz
  1  'x, y, z'
loop_
 _atom_site_type_symbol
 _atom_site_label
 _atom_site_symmetry_multiplicity
 _atom_site_fract_x
 _atom_site_fract_y
 _atom_site_fract_z
 _atom_site_occupancy
  Na  Na0  1  0.76564978  0.49610870  0.63918451  1.0
  Na  Na1  1  0.80253904  0.02530949  0.19220171  1.0
  Na  Na2  1  0.84504031  0.95176723  0.95250644  1.0
  Na  Na3  1  0.93585873  0.49837974  0.91706330  1.0
  Cl  Cl4  1  0.69555713  0.37132378  0.18974290  1.0
  Cl  Cl5  1  0.49856148  0.13164996  0.65589266  1.0
  Cl  Cl6  1  0.25581646  0.67595205  0.29709744  1.0
  Cl  Cl7  1  0.00491759  0.07765181  0.78747361  1.0
