# generated using pymatgen
data_NaCl
_symmetry_space_group_name_H-M   'P 1'
_cell_length_a   3.07475957
_cell_length_b   15.82315081
_cell_length_c   5.75050548
_cell_angle_alpha   90.00000000
_cell_angle_beta   90.00000000
_cell_angle_gamma   90.00000000
_symmetry_Int_Tables_number   1
_chemical_formula_structural   NaCl
_chemical_formula_sum   'Na4 Cl4'
_cell_volume   279.77580300
_cell_formula_units_Z   4
loop_
 _symmetry_equiv_pos_site_id
 _symmetry_equiv_pos_as_xyz
  1  'x, y, z'
loop_
 _atom_site_type_symbol
 _atom_site_label
 _atom_site_symmetry_multiplicity
 _atom_site_fract_x
 _atom_site_fract_y
 _atom_site_fract_z
 _atom_site_occupancy
  Na  Na0  1  0.25000000  0.18930186  0.92305338  1.0
  Na  Na1  1  0.75000000  0.22509412  0.51344455  1.0
  Na  Na2  1  0.25000000  0.70886541  0.55866712  1.0
  Na  Na3  1  0.75000000  0.80747469  0.93101227  1.0
  Cl  Cl4  1  0.00000000  0.50000000  0.66943237  1.0
  Cl  Cl5  1  0.50000000  0.50000000  0.10867559  1.0
  Cl  Cl6  1  0.25000000  0.44918140  0.62979169  1.0
  Cl  Cl7  1  0.75000000  0.58299096  0.46804543  1.0
