# generated using pymatgen
data_NaCl
_symmetry_space_group_name_H-M   'P 1'
_cell_length_a   5.56725738
_cell_length_b   16.28887932
_cell_length_c   4.32867955
_cell_angle_alpha   90.00000000
_cell_angle_beta   90.00000000
_cell_angle_gamma   90.00000000
_symmetry_Int_Tables_number   1
_chemical_formula_structural   NaCl
_chemical_formula_sum   'Na4 Cl4'
_cell_volume   392.54363682
_cell_formula_units_Z   4
loop_
 _symmetry_equiv_pos_site_id
 _symmetry_equiv_pos_as_xyz
  1  'x, y, z'
loop_
 _atom_site_type_symbol
 _atom_site_label
 _atom_site_symmetry_multiplicity
 _atom_site_fract_x
 _atom_site_fract_y
 _atom_site_fract_z
 _atom_site_occupancy
  Na  Na0  1  0.30336591  0.17475269  0.75643940  1.0
  Na  Na1  1  0.27410443  0.02134546  0.24907118  1.0
  Na  Na2  1  0.24640123  0.49207711  0.29434889  1.0
  Na  Na3  1  0.85330435  0.08934467  0.76424971  1.0
  Cl  Cl4  1  0.84692138  0.14105701  0.59625002  1.0
  Cl  Cl5  1  0.67589575  0.85336436  0.76600052  1.0
  Cl  Cl6  1  0.12302629  0.56845163  0.19628077  1.0
  Cl  Cl7  1  0.26479879  0.05189395  0.85547105  1.0
