# generated using pymatgen
data_NaCl
_symmetry_space_group_name_H-M   'P 1'
_cell_length_a   4.26927486
_cell_length_b   13.35220293
_cell_length_c   3.53115216
_cell_angle_alpha   90.00000000
_cell_angle_beta   90.00000000
_cell_angle_gamma   90.00000000
_symmetry_Int_Tables_number   1
_chemical_formula_structural   NaCl
_chemical_formula_sum   'Na4 Cl4'
_cell_volume   201.29058975
_cell_formula_units_Z   4
loop_
 _symmetry_equiv_pos_site_id
 _symmetry_equiv_pos_as_xyz
  1  'x, y, z'
loop_
 _atom_site_type_symbol
 _atom_site_label
 _atom_site_symmetry_multiplicity
 _atom_site_fract_x
 _atom_site_fract_y
 _atom_site_fract_z
 _atom_site_occupancy
  Na  Na0  1  0.25000000  0.19994593  0.94921140  1.0
  Na  Na1  1  0.75000000  0.06448782  0.59442814  1.0
  Na  Na2  1  0.25000000  0.03830998  0.39359091  1.0
  Na  Na3  1  0.75000000  0.18828507  0.30158658  1.0
  Cl  Cl4  1  0.25000000  0.13544684  0.51746870  1.0
  Cl  Cl5  1  0.75000000  0.67237615  0.60940796  1.0
  Cl  Cl6  1  0.25000000  0.10777099  0.99484737  1.0
  Cl  Cl7  1  0.75000000  0.29696604  0.15488458  1.0
