# generated using pymatgen
data_NaCl
_symmetry_space_group_name_H-M   'P 1'
_cell_length_a   4.58093512
_cell_length_b   4.58093512
_cell_length_c   4.17819157
_cell_angle_alpha   90.00000000
_cell_angle_beta   90.00000000
_cell_angle_gamma   90.00000000
_symmetry_Int_Tables_number   1
_chemical_formula_structural   NaCl
_chemical_formula_sum   'Na4 Cl4'
_cell_volume   87.67921043
_cell_formula_units_Z   4
loop_
 _symmetry_equiv_pos_site_id
 _symmetry_equiv_pos_as_xyz
  1  'x, y, z'
loop_
 _atom_site_type_symbol
 _atom_site_label
 _atom_site_symmetry_multiplicity
 _atom_site_fract_x
 _atom_site_fract_y
 _atom_site_fract_z
 _atom_site_occupancy
  Na  Na0  1  0.00000000  0.50000000  0.51792729  1.0
  Na  Na1  1  0.50000000  0.00000000  0.84256316  1.0
  Na  Na2  1  0.00000000  0.50000000  0.99388252  1.0
  Na  Na3  1  0.50000000  0.00000000  0.44272551  1.0
  Cl  Cl4  1  0.53394183  0.53394183  0.01937073  1.0
  Cl  Cl5  1  0.76188168  0.76188168  0.69868091  1.0
  Cl  Cl6  1  0.06763475  0.93236525  0.66219890  1.0
  Cl  Cl7  1  0.06546066  0.93453934  0.01086205  1.0
