# generated using pymatgen
data_NaCl
_symmetry_space_group_name_H-M   'P 1'
_cell_length_a   4.88347358
_cell_length_b   4.88347358
_cell_length_c   15.96174194
_cell_angle_alpha   90.00000000
_cell_angle_beta   90.00000000
_cell_angle_gamma   90.00000000
_symmetry_Int_Tables_number   1
_chemical_formula_structural   NaCl
_chemical_formula_sum   'Na4 Cl4'
_cell_volume   380.66063707
_cell_formula_units_Z   4
loop_
 _symmetry_equiv_pos_site_id
 _symmetry_equiv_pos_as_xyz
  1  'x, y, z'
loop_
 _atom_site_type_symbol
 _atom_site_label
 _atom_site_symmetry_multiplicity
 _atom_site_fract_x
 _atom_site_fract_y
 _atom_site_fract_z
 _atom_site_occupancy
  Na  Na0  1  0.00000000  0.00000000  0.89415362  1.0
  Na  Na1  1  0.00000000  0.00000000  0.22169234  1.0
  Na  Na2  1  0.00000000  0.50000000  0.75965126  1.0
  Na  Na3  1  0.50000000  0.00000000  0.17766518  1.0
  Cl  Cl4  1  0.88912500  0.50000000  0.67993666  1.0
  Cl  Cl5  1  0.80911961  0.50000000  0.83208337  1.0
  Cl  Cl6  1  0.50000000  0.74103830  0.57521327  1.0
  Cl  Cl7  1  0.50000000  0.08184626  0.87812008  1.0
