# generated using pymatgen
data_NaCl
_symmetry_space_group_name_H-M   'P 1'
_cell_length_a   6.52885730
_cell_length_b   6.52885730
_cell_length_c   6.52885730
_cell_angle_alpha   90.00000000
_cell_angle_beta   90.00000000
_cell_angle_gamma   90.00000000
_symmetry_Int_Tables_number   1
_chemical_formula_structural   NaCl
_chemical_formula_sum   'Na4 Cl4'
_cell_volume   278.29892531
_cell_formula_units_Z   4
loop_
 _symmetry_equiv_pos_site_id
 _symmetry_equiv_pos_as_xyz
  1  'x, y, z'
loop_
 _atom_site_type_symbol
 _atom_site_label
 _atom_site_symmetry_multiplicity
 _atom_site_fract_x
 _atom_site_fract_y
 _atom_site_fract_z
 _atom_site_occupancy
  Na  Na0  1  0.62718673  0.62718673  0.62718673  1.0
  Na  Na1  1  0.86020862  0.36020862  0.13979138  1.0
  Na  Na2  1  0.85067861  0.64932139  0.35067861  1.0
  Na  Na3  1  0.75818720  0.24181280  0.74181280  1.0
  Cl  Cl4  1  0.80810560  0.80810560  0.80810560  1.0
  Cl  Cl5  1  0.35418377  0.85418377  0.64581623  1.0
  Cl  Cl6  1  0.28421222  0.21578778  0.78421222  1.0
  Cl  Cl7  1  0.38867876  0.61132124  0.11132124  1.0
