# generated using pymatgen
data_NaCl
_symmetry_space_group_name_H-M   'P 1'
_cell_length_a   6.86874089
_cell_length_b   6.86874089
_cell_length_c   6.86874089
_cell_angle_alpha   90.00000000
_cell_angle_beta   90.00000000
_cell_angle_gamma   90.00000000
_symmetry_Int_Tables_number   1
_chemical_formula_structural   NaCl
_chemical_formula_sum   'Na4 Cl4'
_cell_volume   324.06445741
_cell_formula_units_Z   4
loop_
 _symmetry_equiv_pos_site_id
 _symmetry_equiv_pos_as_xyz
  1  'x, y, z'
loop_
 _atom_site_type_symbol
 _atom_site_label
 _atom_site_symmetry_multiplicity
 _atom_site_fract_x
 _atom_site_fract_y
 _atom_site_fract_z
 _atom_site_occupancy
  Na  Na0  1  0.56128575  0.56128575  0.56128575  1.0
  Na  Na1  1  0.88623625  0.38623625  0.11376375  1.0
  Na  Na2  1  0.84365390  0.65634610  0.34365390  1.0
  Na  Na3  1  0.77012930  0.22987070  0.72987070  1.0
  Cl  Cl4  1  0.81718607  0.81718607  0.81718607  1.0
  Cl  Cl5  1  0.25659458  0.75659458  0.74340542  1.0
  Cl  Cl6  1  0.22903315  0.27096685  0.72903315  1.0
  Cl  Cl7  1  0.47089784  0.52910216  0.02910216  1.0
