# generated using pymatgen
data_NaCl
_symmetry_space_group_name_H-M   'P 1'
_cell_length_a   7.17317643
_cell_length_b   3.27417237
_cell_length_c   16.80402237
_cell_angle_alpha   90.00000000
_cell_angle_beta   101.01201807
_cell_angle_gamma   90.00000000
_symmetry_Int_Tables_number   1
_chemical_formula_structural   NaCl
_chemical_formula_sum   'Na4 Cl4'
_cell_volume   387.39602703
_cell_formula_units_Z   4
loop_
 _symmetry_equiv_pos_site_id
 _symmetry_equiv_pos_as_xyz
  1  'x, y, z'
loop_
 _atom_site_type_symbol
 _atom_site_label
 _atom_site_symmetry_multiplicity
 _atom_site_fract_x
 _atom_site_fract_y
 _atom_site_fract_z
 _atom_site_occupancy
  Na  Na0  1  0.61284604  0.24018358  0.92049080  1.0
  Na  Na1  1  0.41738414  0.13707830  0.45802647  1.0
  Na  Na2  1  0.24268240  0.93812240  0.68928449  1.0
  Na  Na3  1  0.87365874  0.74143635  0.50261052  1.0
  Cl  Cl4  1  0.99826930  0.35837006  0.85999814  1.0
  Cl  Cl5  1  0.81010446  0.79807743  0.21140403  1.0
  Cl  Cl6  1  0.86043107  0.77445038  0.03615205  1.0
  Cl  Cl7  1  0.01990376  0.71672777  0.47579888  1.0
