# generated using pymatgen
data_NaCl
_symmetry_space_group_name_H-M   'P 1'
_cell_length_a   4.62559045
_cell_length_b   4.62559045
_cell_length_c   4.62559045
_cell_angle_alpha   90.00000000
_cell_angle_beta   90.00000000
_cell_angle_gamma   90.00000000
_symmetry_Int_Tables_number   1
_chemical_formula_structural   NaCl
_chemical_formula_sum   'Na4 Cl4'
_cell_volume   98.96953575
_cell_formula_units_Z   4
loop_
 _symmetry_equiv_pos_site_id
 _symmetry_equiv_pos_as_xyz
  1  'x, y, z'
loop_
 _atom_site_type_symbol
 _atom_site_label
 _atom_site_symmetry_multiplicity
 _atom_site_fract_x
 _atom_site_fract_y
 _atom_site_fract_z
 _atom_site_occupancy
  Na  Na0  1  0.50334899  0.50334899  0.50334899  1.0
  Na  Na1  1  0.62128408  0.12128408  0.37871592  1.0
  Na  Na2  1  0.77271158  0.72728842  0.27271158  1.0
  Na  Na3  1  0.96815407  0.03184593  0.53184593  1.0
  Cl  Cl4  1  0.90424180  0.90424180  0.90424180  1.0
  Cl  Cl5  1  0.24780179  0.74780179  0.75219821  1.0
  Cl  Cl6  1  0.31841250  0.18158750  0.81841250  1.0
  Cl  Cl7  1  0.39155607  0.60844393  0.10844393  1.0
