# generated using pymatgen
data_NaCl
_symmetry_space_group_name_H-M   'P 1'
_cell_length_a   7.62159262
_cell_length_b   7.62159262
_cell_length_c   5.96216202
_cell_angle_alpha   90.00000000
_cell_angle_beta   90.00000000
_cell_angle_gamma   90.00000000
_symmetry_Int_Tables_number   1
_chemical_formula_structural   NaCl
_chemical_formula_sum   'Na4 Cl4'
_cell_volume   346.33408630
_cell_formula_units_Z   4
loop_
 _symmetry_equiv_pos_site_id
 _symmetry_equiv_pos_as_xyz
  1  'x, y, z'
loop_
 _atom_site_type_symbol
 _atom_site_label
 _atom_site_symmetry_multiplicity
 _atom_site_fract_x
 _atom_site_fract_y
 _atom_site_fract_z
 _atom_site_occupancy
  Na  Na0  1  0.50962868  0.50962868  0.62500000  1.0
  Na  Na1  1  0.57934325  0.57934325  0.12500000  1.0
  Na  Na2  1  0.85375205  0.14624795  0.37500000  1.0
  Na  Na3  1  0.11783750  0.88216250  0.87500000  1.0
  Cl  Cl4  1  0.00000000  0.17148286  0.00000000  1.0
  Cl  Cl5  1  0.00000000  0.62439787  0.50000000  1.0
  Cl  Cl6  1  0.33803493  0.00000000  0.75000000  1.0
  Cl  Cl7  1  0.16339675  0.00000000  0.25000000  1.0
