# generated using pymatgen
data_NaCl
_symmetry_space_group_name_H-M   'P 1'
_cell_length_a   3.99716232
_cell_length_b   16.36473318
_cell_length_c   5.44999654
_cell_angle_alpha   90.00000000
_cell_angle_beta   90.00000000
_cell_angle_gamma   90.00000000
_symmetry_Int_Tables_number   1
_chemical_formula_structural   NaCl
_chemical_formula_sum   'Na4 Cl4'
_cell_volume   356.49787057
_cell_formula_units_Z   4
loop_
 _symmetry_equiv_pos_site_id
 _symmetry_equiv_pos_as_xyz
  1  'x, y, z'
loop_
 _atom_site_type_symbol
 _atom_site_label
 _atom_site_symmetry_multiplicity
 _atom_site_fract_x
 _atom_site_fract_y
 _atom_site_fract_z
 _atom_site_occupancy
  Na  Na0  1  0.40857064  0.00668695  0.85239689  1.0
  Na  Na1  1  0.00208334  0.07370053  0.14092701  1.0
  Na  Na2  1  0.78050140  0.41212286  0.17341774  1.0
  Na  Na3  1  0.85894730  0.15307330  0.78921705  1.0
  Cl  Cl4  1  0.00000000  0.00250141  0.60921998  1.0
  Cl  Cl5  1  0.50000000  0.62632590  0.67572283  1.0
  Cl  Cl6  1  0.00000000  0.42568605  0.68489774  1.0
  Cl  Cl7  1  0.50000000  0.62459284  0.11559779  1.0
