# generated using pymatgen
data_NaCl
_symmetry_space_group_name_H-M   'P 1'
_cell_length_a   7.16897876
_cell_length_b   14.74069252
_cell_length_c   3.53222961
_cell_angle_alpha   90.00000000
_cell_angle_beta   115.08762446
_cell_angle_gamma   90.00000000
_symmetry_Int_Tables_number   1
_chemical_formula_structural   NaCl
_chemical_formula_sum   'Na4 Cl4'
_cell_volume   338.05665313
_cell_formula_units_Z   4
loop_
 _symmetry_equiv_pos_site_id
 _symmetry_equiv_pos_as_xyz
  1  'x, y, z'
loop_
 _atom_site_type_symbol
 _atom_site_label
 _atom_site_symmetry_multiplicity
 _atom_site_fract_x
 _atom_site_fract_y
 _atom_site_fract_z
 _atom_site_occupancy
  Na  Na0  1  0.36438700  0.08242165  0.83738696  1.0
  Na  Na1  1  0.55067213  0.43061021  0.25173736  1.0
  Na  Na2  1  0.79381909  0.66143636  0.85787504  1.0
  Na  Na3  1  0.94547784  0.54145817  0.05695940  1.0
  Cl  Cl4  1  0.60352577  0.08818326  0.44626812  1.0
  Cl  Cl5  1  0.10681995  0.66883320  0.78717109  1.0
  Cl  Cl6  1  0.14444310  0.40357126  0.66402137  1.0
  Cl  Cl7  1  0.39920845  0.56501872  0.42341220  1.0
