# generated using pymatgen
data_NaCl
_symmetry_space_group_name_H-M   'P 1'
_cell_length_a   2.53123037
_cell_length_b   7.72453390
_cell_length_c   20.79330075
_cell_angle_alpha   90.00000000
_cell_angle_beta   72.31416463
_cell_angle_gamma   90.00000000
_symmetry_Int_Tables_number   1
_chemical_formula_structural   NaCl
_chemical_formula_sum   'Na4 Cl4'
_cell_volume   387.34704511
_cell_formula_units_Z   4
loop_
 _symmetry_equiv_pos_site_id
 _symmetry_equiv_pos_as_xyz
  1  'x, y, z'
loop_
 _atom_site_type_symbol
 _atom_site_label
 _atom_site_symmetry_multiplicity
 _atom_site_fract_x
 _atom_site_fract_y
 _atom_site_fract_z
 _atom_site_occupancy
  Na  Na0  1  0.13484188  0.00000000  0.99988491  1.0
  Na  Na1  1  0.55337055  0.00000000  0.61914891  1.0
  Na  Na2  1  0.16238272  0.86880198  0.78146263  1.0
  Na  Na3  1  0.06406577  0.78324625  0.23890103  1.0
  Cl  Cl4  1  0.87675492  0.26158947  0.55777441  1.0
  Cl  Cl5  1  0.30191622  0.77984173  0.47342240  1.0
  Cl  Cl6  1  0.68131276  0.85413403  0.52104767  1.0
  Cl  Cl7  1  0.98411844  0.79227080  0.51085470  1.0
