# generated using pymatgen
data_NaCl
_symmetry_space_group_name_H-M   'P 1'
_cell_length_a   4.05175201
_cell_length_b   2.29938798
_cell_length_c   16.97377667
_cell_angle_alpha   90.00000000
_cell_angle_beta   90.00000000
_cell_angle_gamma   90.00000000
_symmetry_Int_Tables_number   1
_chemical_formula_structural   NaCl
_chemical_formula_sum   'Na4 Cl4'
_cell_volume   158.13703682
_cell_formula_units_Z   4
loop_
 _symmetry_equiv_pos_site_id
 _symmetry_equiv_pos_as_xyz
  1  'x, y, z'
loop_
 _atom_site_type_symbol
 _atom_site_label
 _atom_site_symmetry_multiplicity
 _atom_site_fract_x
 _atom_site_fract_y
 _atom_site_fract_z
 _atom_site_occupancy
  Na  Na0  1  0.60614619  0.30408908  0.92251579  1.0
  Na  Na1  1  0.87019090  0.31729071  0.00705179  1.0
  Na  Na2  1  0.84273651  0.01780236  0.16143650  1.0
  Na  Na3  1  0.81543328  0.23097482  0.50581356  1.0
  Cl  Cl4  1  0.00000000  0.26487263  0.81319429  1.0
  Cl  Cl5  1  0.50000000  0.63062306  0.31926402  1.0
  Cl  Cl6  1  0.00000000  0.72739357  0.00070753  1.0
  Cl  Cl7  1  0.50000000  0.80237945  0.05423047  1.0
