# generated using pymatgen
data_NaCl
_symmetry_space_group_name_H-M   'P 1'
_cell_length_a   5.47625134
_cell_length_b   5.47625134
_cell_length_c   5.47625134
_cell_angle_alpha   90.00000000
_cell_angle_beta   90.00000000
_cell_angle_gamma   90.00000000
_symmetry_Int_Tables_number   1
_chemical_formula_structural   NaCl
_chemical_formula_sum   'Na4 Cl4'
_cell_volume   164.22910169
_cell_formula_units_Z   4
loop_
 _symmetry_equiv_pos_site_id
 _symmetry_equiv_pos_as_xyz
  1  'x, y, z'
loop_
 _atom_site_type_symbol
 _atom_site_label
 _atom_site_symmetry_multiplicity
 _atom_site_fract_x
 _atom_site_fract_y
 _atom_site_fract_z
 _atom_site_occupancy
  Na  Na0  1  0.61308099  0.61308099  0.61308099  1.0
  Na  Na1  1  0.92043276  0.42043276  0.07956724  1.0
  Na  Na2  1  0.75659093  0.74340907  0.25659093  1.0
  Na  Na3  1  0.60702593  0.39297407  0.89297407  1.0
  Cl  Cl4  1  0.94821362  0.94821362  0.94821362  1.0
  Cl  Cl5  1  0.35565158  0.85565158  0.64434842  1.0
  Cl  Cl6  1  0.27739758  0.22260242  0.77739758  1.0
  Cl  Cl7  1  0.31617492  0.68382508  0.18382508  1.0
