# generated using pymatgen
data_NaCl
_symmetry_space_group_name_H-M   'P 1'
_cell_length_a   4.49681278
_cell_length_b   4.49681278
_cell_length_c   14.52491479
_cell_angle_alpha   90.00000000
_cell_angle_beta   90.00000000
_cell_angle_gamma   90.00000000
_symmetry_Int_Tables_number   1
_chemical_formula_structural   NaCl
_chemical_formula_sum   'Na4 Cl4'
_cell_volume   293.71302516
_cell_formula_units_Z   4
loop_
 _symmetry_equiv_pos_site_id
 _symmetry_equiv_pos_as_xyz
  1  'x, y, z'
loop_
 _atom_site_type_symbol
 _atom_site_label
 _atom_site_symmetry_multiplicity
 _atom_site_fract_x
 _atom_site_fract_y
 _atom_site_fract_z
 _atom_site_occupancy
  Na  Na0  1  0.71874890  0.71874890  0.00000000  1.0
  Na  Na1  1  0.45080239  0.45080239  0.50000000  1.0
  Na  Na2  1  0.10822856  0.89177144  0.75000000  1.0
  Na  Na3  1  0.65684321  0.34315679  0.25000000  1.0
  Cl  Cl4  1  0.91099060  0.91099060  0.00000000  1.0
  Cl  Cl5  1  0.79217386  0.79217386  0.50000000  1.0
  Cl  Cl6  1  0.55357029  0.44642971  0.75000000  1.0
  Cl  Cl7  1  0.47143139  0.52856861  0.25000000  1.0
