# generated using pymatgen
data_NaCl
_symmetry_space_group_name_H-M   'P 1'
_cell_length_a   6.73003092
_cell_length_b   6.73003092
_cell_length_c   5.33784947
_cell_angle_alpha   90.00000000
_cell_angle_beta   90.00000000
_cell_angle_gamma   90.00000000
_symmetry_Int_Tables_number   1
_chemical_formula_structural   NaCl
_chemical_formula_sum   'Na4 Cl4'
_cell_volume   241.76890379
_cell_formula_units_Z   4
loop_
 _symmetry_equiv_pos_site_id
 _symmetry_equiv_pos_as_xyz
  1  'x, y, z'
loop_
 _atom_site_type_symbol
 _atom_site_label
 _atom_site_symmetry_multiplicity
 _atom_site_fract_x
 _atom_site_fract_y
 _atom_site_fract_z
 _atom_site_occupancy
  Na  Na0  1  0.00000000  0.50000000  0.87153651  1.0
  Na  Na1  1  0.00000000  0.50000000  0.17022208  1.0
  Na  Na2  1  0.50000000  0.00000000  0.36269739  1.0
  Na  Na3  1  0.50000000  0.00000000  0.82100377  1.0
  Cl  Cl4  1  0.68113027  0.68113027  0.64881952  1.0
  Cl  Cl5  1  0.30623985  0.30623985  0.52870873  1.0
  Cl  Cl6  1  0.56700081  0.43299919  0.17439604  1.0
  Cl  Cl7  1  0.39352779  0.60647221  0.01105759  1.0
