# generated using pymatgen
data_NaCl
_symmetry_space_group_name_H-M   'P 1'
_cell_length_a   2.61593857
_cell_length_b   2.61593857
_cell_length_c   22.07250251
_cell_angle_alpha   90.00000000
_cell_angle_beta   90.00000000
_cell_angle_gamma   90.00000000
_symmetry_Int_Tables_number   1
_chemical_formula_structural   NaCl
_chemical_formula_sum   'Na4 Cl4'
_cell_volume   151.04510568
_cell_formula_units_Z   4
loop_
 _symmetry_equiv_pos_site_id
 _symmetry_equiv_pos_as_xyz
  1  'x, y, z'
loop_
 _atom_site_type_symbol
 _atom_site_label
 _atom_site_symmetry_multiplicity
 _atom_site_fract_x
 _atom_site_fract_y
 _atom_site_fract_z
 _atom_site_occupancy
  Na  Na0  1  0.58762776  0.38235980  0.94939223  1.0
  Na  Na1  1  0.43086995  0.57344872  0.05205391  1.0
  Na  Na2  1  0.33119232  0.07831717  0.31345530  1.0
  Na  Na3  1  0.58445182  0.57553472  0.61484684  1.0
  Cl  Cl4  1  0.59326652  0.18306914  0.74491179  1.0
  Cl  Cl5  1  0.71013183  0.53896633  0.25560858  1.0
  Cl  Cl6  1  0.20148306  0.99408762  0.44016229  1.0
  Cl  Cl7  1  0.20984709  0.51710844  0.81472356  1.0
