# generated using pymatgen
data_NaCl
_symmetry_space_group_name_H-M   'P 1'
_cell_length_a   3.61671872
_cell_length_b   3.61671872
_cell_length_c   15.62507383
_cell_angle_alpha   90.00000000
_cell_angle_beta   90.00000000
_cell_angle_gamma   90.00000000
_symmetry_Int_Tables_number   1
_chemical_formula_structural   NaCl
_chemical_formula_sum   'Na4 Cl4'
_cell_volume   204.38618918
_cell_formula_units_Z   4
loop_
 _symmetry_equiv_pos_site_id
 _symmetry_equiv_pos_as_xyz
  1  'x, y, z'
loop_
 _atom_site_type_symbol
 _atom_site_label
 _atom_site_symmetry_multiplicity
 _atom_site_fract_x
 _atom_site_fract_y
 _atom_site_fract_z
 _atom_site_occupancy
  Na  Na0  1  0.14509240  0.27343760  0.69576323  1.0
  Na  Na1  1  0.15778291  0.30900501  0.47651781  1.0
  Na  Na2  1  0.14858672  0.84225789  0.10244563  1.0
  Na  Na3  1  0.24904718  0.63843097  0.62680777  1.0
  Cl  Cl4  1  0.50806736  0.60108146  0.92948873  1.0
  Cl  Cl5  1  0.55706193  0.97371811  0.50118529  1.0
  Cl  Cl6  1  0.77303769  0.87722628  0.14485032  1.0
  Cl  Cl7  1  0.12370308  0.29432636  0.30961483  1.0
