# generated using pymatgen
data_NaCl
_symmetry_space_group_name_H-M   'P 1'
_cell_length_a   4.96542510
_cell_length_b   4.96542510
_cell_length_c   15.20064605
_cell_angle_alpha   90.00000000
_cell_angle_beta   90.00000000
_cell_angle_gamma   120.00000000
_symmetry_Int_Tables_number   1
_chemical_formula_structural   NaCl
_chemical_formula_sum   'Na4 Cl4'
_cell_volume   324.56788737
_cell_formula_units_Z   4
loop_
 _symmetry_equiv_pos_site_id
 _symmetry_equiv_pos_as_xyz
  1  'x, y, z'
loop_
 _atom_site_type_symbol
 _atom_site_label
 _atom_site_symmetry_multiplicity
 _atom_site_fract_x
 _atom_site_fract_y
 _atom_site_fract_z
 _atom_site_occupancy
  Na  Na0  1  0.33333333  0.66666667  0.77809583  1.0
  Na  Na1  1  0.94138992  0.69157268  0.56962334  1.0
  Na  Na2  1  0.31319748  0.08957172  0.73868337  1.0
  Na  Na3  1  0.13282720  0.73898609  0.46706069  1.0
  Cl  Cl4  1  0.00000000  0.00000000  0.86529838  1.0
  Cl  Cl5  1  0.07058975  0.15231829  0.49614935  1.0
  Cl  Cl6  1  0.76847497  0.81312345  0.06049583  1.0
  Cl  Cl7  1  0.61854461  0.59089404  0.10177348  1.0
