# generated using pymatgen
data_NaCl
_symmetry_space_group_name_H-M   'P 1'
_cell_length_a   4.02026920
_cell_length_b   4.02026920
_cell_length_c   19.06628342
_cell_angle_alpha   90.00000000
_cell_angle_beta   90.00000000
_cell_angle_gamma   90.00000000
_symmetry_Int_Tables_number   1
_chemical_formula_structural   NaCl
_chemical_formula_sum   'Na4 Cl4'
_cell_volume   308.16003442
_cell_formula_units_Z   4
loop_
 _symmetry_equiv_pos_site_id
 _symmetry_equiv_pos_as_xyz
  1  'x, y, z'
loop_
 _atom_site_type_symbol
 _atom_site_label
 _atom_site_symmetry_multiplicity
 _atom_site_fract_x
 _atom_site_fract_y
 _atom_site_fract_z
 _atom_site_occupancy
  Na  Na0  1  0.46851929  0.33170980  0.74445180  1.0
  Na  Na1  1  0.21835266  0.07843327  0.21128461  1.0
  Na  Na2  1  0.22417467  0.63006568  0.89573191  1.0
  Na  Na3  1  0.16394555  0.76271621  0.32416396  1.0
  Cl  Cl4  1  0.62703779  0.99964321  0.80825556  1.0
  Cl  Cl5  1  0.96832201  0.76391448  0.89921569  1.0
  Cl  Cl6  1  0.70741202  0.01924437  0.40056300  1.0
  Cl  Cl7  1  0.01697057  0.54825983  0.78652957  1.0
