# generated using pymatgen
data_NaCl
_symmetry_space_group_name_H-M   'P 1'
_cell_length_a   3.72738999
_cell_length_b   3.72738999
_cell_length_c   19.69236327
_cell_angle_alpha   90.00000000
_cell_angle_beta   90.00000000
_cell_angle_gamma   90.00000000
_symmetry_Int_Tables_number   1
_chemical_formula_structural   NaCl
_chemical_formula_sum   'Na4 Cl4'
_cell_volume   273.59459149
_cell_formula_units_Z   4
loop_
 _symmetry_equiv_pos_site_id
 _symmetry_equiv_pos_as_xyz
  1  'x, y, z'
loop_
 _atom_site_type_symbol
 _atom_site_label
 _atom_site_symmetry_multiplicity
 _atom_site_fract_x
 _atom_site_fract_y
 _atom_site_fract_z
 _atom_site_occupancy
  Na  Na0  1  0.00000000  0.00000000  0.81645515  1.0
  Na  Na1  1  0.00000000  0.00000000  0.57466142  1.0
  Na  Na2  1  0.50000000  0.50000000  0.26792329  1.0
  Na  Na3  1  0.50000000  0.50000000  0.64581643  1.0
  Cl  Cl4  1  0.50299471  0.97278324  0.75712744  1.0
  Cl  Cl5  1  0.83155845  0.53534288  0.41114483  1.0
  Cl  Cl6  1  0.76893968  0.89896011  0.11818616  1.0
  Cl  Cl7  1  0.09465092  0.59183454  0.16020977  1.0
