# generated using pymatgen
data_NaCl
_symmetry_space_group_name_H-M   'P 1'
_cell_length_a   4.51077357
_cell_length_b   6.26318640
_cell_length_c   17.04308740
_cell_angle_alpha   90.00000000
_cell_angle_beta   35.76767312
_cell_angle_gamma   90.00000000
_symmetry_Int_Tables_number   1
_chemical_formula_structural   NaCl
_chemical_formula_sum   'Na4 Cl4'
_cell_volume   281.43566286
_cell_formula_units_Z   4
loop_
 _symmetry_equiv_pos_site_id
 _symmetry_equiv_pos_as_xyz
  1  'x, y, z'
loop_
 _atom_site_type_symbol
 _atom_site_label
 _atom_site_symmetry_multiplicity
 _atom_site_fract_x
 _atom_site_fract_y
 _atom_site_fract_z
 _atom_site_occupancy
  Na  Na0  1  0.44303768  0.49855026  0.57076704  1.0
  Na  Na1  1  0.03275056  0.11618890  0.39727020  1.0
  Na  Na2  1  0.35078019  0.44821228  0.27520142  1.0
  Na  Na3  1  0.56938736  0.63152887  0.61780517  1.0
  Cl  Cl4  1  0.51027381  0.68748630  0.90444452  1.0
  Cl  Cl5  1  0.82158307  0.56208972  0.51918712  1.0
  Cl  Cl6  1  0.83143099  0.17377590  0.12131767  1.0
  Cl  Cl7  1  0.29130947  0.55055835  0.95250997  1.0
