# generated using pymatgen
data_NaCl
_symmetry_space_group_name_H-M   'P 1'
_cell_length_a   2.04388008
_cell_length_b   6.46226658
_cell_length_c   18.47701855
_cell_angle_alpha   90.00000000
_cell_angle_beta   116.80925248
_cell_angle_gamma   90.00000000
_symmetry_Int_Tables_number   1
_chemical_formula_structural   NaCl
_chemical_formula_sum   'Na4 Cl4'
_cell_volume   217.81446816
_cell_formula_units_Z   4
loop_
 _symmetry_equiv_pos_site_id
 _symmetry_equiv_pos_as_xyz
  1  'x, y, z'
loop_
 _atom_site_type_symbol
 _atom_site_label
 _atom_site_symmetry_multiplicity
 _atom_site_fract_x
 _atom_site_fract_y
 _atom_site_fract_z
 _atom_site_occupancy
  Na  Na0  1  0.48421227  0.61385564  0.32901177  1.0
  Na  Na1  1  0.70622890  0.39091335  0.85279920  1.0
  Na  Na2  1  0.39460357  0.91457673  0.16254884  1.0
  Na  Na3  1  0.16132899  0.31822095  0.42485602  1.0
  Cl  Cl4  1  0.49057413  0.47014519  0.95372321  1.0
  Cl  Cl5  1  0.25581035  0.86411586  0.61911002  1.0
  Cl  Cl6  1  0.28040650  0.50984237  0.45220923  1.0
  Cl  Cl7  1  0.87167294  0.76057220  0.19052616  1.0
