# generated using pymatgen
data_NaCl
_symmetry_space_group_name_H-M   'P 1'
_cell_length_a   6.00682538
_cell_length_b   2.11641509
_cell_length_c   22.69366782
_cell_angle_alpha   90.00000000
_cell_angle_beta   90.00000000
_cell_angle_gamma   90.00000000
_symmetry_Int_Tables_number   1
_chemical_formula_structural   NaCl
_chemical_formula_sum   'Na4 Cl4'
_cell_volume   288.50314381
_cell_formula_units_Z   4
loop_
 _symmetry_equiv_pos_site_id
 _symmetry_equiv_pos_as_xyz
  1  'x, y, z'
loop_
 _atom_site_type_symbol
 _atom_site_label
 _atom_site_symmetry_multiplicity
 _atom_site_fract_x
 _atom_site_fract_y
 _atom_site_fract_z
 _atom_site_occupancy
  Na  Na0  1  0.49350169  0.48651803  0.08205520  1.0
  Na  Na1  1  0.68090117  0.11535583  0.80326228  1.0
  Na  Na2  1  0.56821184  0.33900800  0.31321759  1.0
  Na  Na3  1  0.04650925  0.43478899  0.60896447  1.0
  Cl  Cl4  1  0.51695381  0.53351377  0.80471857  1.0
  Cl  Cl5  1  0.50094548  0.40772082  0.16913364  1.0
  Cl  Cl6  1  0.53444826  0.26677887  0.74749063  1.0
  Cl  Cl7  1  0.72897093  0.71743645  0.33278263  1.0
