# generated using pymatgen
data_NaCl
_symmetry_space_group_name_H-M   'P 1'
_cell_length_a   4.42902954
_cell_length_b   4.07867167
_cell_length_c   14.83639840
_cell_angle_alpha   90.00000000
_cell_angle_beta   48.59580866
_cell_angle_gamma   90.00000000
_symmetry_Int_Tables_number   1
_chemical_formula_structural   NaCl
_chemical_formula_sum   'Na4 Cl4'
_cell_volume   201.02652885
_cell_formula_units_Z   4
loop_
 _symmetry_equiv_pos_site_id
 _symmetry_equiv_pos_as_xyz
  1  'x, y, z'
loop_
 _atom_site_type_symbol
 _atom_site_label
 _atom_site_symmetry_multiplicity
 _atom_site_fract_x
 _atom_site_fract_y
 _atom_site_fract_z
 _atom_site_occupancy
  Na  Na0  1  0.63359363  0.31837404  0.34345231  1.0
  Na  Na1  1  0.63587361  0.05628881  0.54482797  1.0
  Na  Na2  1  0.71581077  0.21961347  0.13667082  1.0
  Na  Na3  1  0.21820309  0.31183099  0.08621343  1.0
  Cl  Cl4  1  0.29670115  0.00000000  0.95370465  1.0
  Cl  Cl5  1  0.70644342  0.50000000  0.99555734  1.0
  Cl  Cl6  1  0.95381089  0.00000000  0.68415049  1.0
  Cl  Cl7  1  0.71617003  0.50000000  0.48704786  1.0
