# generated using pymatgen
data_NaCl
_symmetry_space_group_name_H-M   'P 1'
_cell_length_a   2.45788875
_cell_length_b   10.14841678
_cell_length_c   15.17986666
_cell_angle_alpha   90.00000000
_cell_angle_beta   47.99376352
_cell_angle_gamma   90.00000000
_symmetry_Int_Tables_number   1
_chemical_formula_structural   NaCl
_chemical_formula_sum   'Na4 Cl4'
_cell_volume   281.35806148
_cell_formula_units_Z   4
loop_
 _symmetry_equiv_pos_site_id
 _symmetry_equiv_pos_as_xyz
  1  'x, y, z'
loop_
 _atom_site_type_symbol
 _atom_site_label
 _atom_site_symmetry_multiplicity
 _atom_site_fract_x
 _atom_site_fract_y
 _atom_site_fract_z
 _atom_site_occupancy
  Na  Na0  1  0.72228306  0.60235636  0.02888513  1.0
  Na  Na1  1  0.66415694  0.05726165  0.85870352  1.0
  Na  Na2  1  0.16832312  0.63747418  0.41236654  1.0
  Na  Na3  1  0.07190565  0.70898545  0.79755442  1.0
  Cl  Cl4  1  0.17589654  0.37529161  0.96806667  1.0
  Cl  Cl5  1  0.57104369  0.15530529  0.75026128  1.0
  Cl  Cl6  1  0.84490682  0.94869783  0.02716681  1.0
  Cl  Cl7  1  0.69763099  0.35804791  0.69145340  1.0
