# generated using pymatgen
data_NaCl
_symmetry_space_group_name_H-M   'P 1'
_cell_length_a   3.07607674
_cell_length_b   3.07607674
_cell_length_c   17.35381795
_cell_angle_alpha   90.00000000
_cell_angle_beta   90.00000000
_cell_angle_gamma   90.00000000
_symmetry_Int_Tables_number   1
_chemical_formula_structural   NaCl
_chemical_formula_sum   'Na4 Cl4'
_cell_volume   164.20613111
_cell_formula_units_Z   4
loop_
 _symmetry_equiv_pos_site_id
 _symmetry_equiv_pos_as_xyz
  1  'x, y, z'
loop_
 _atom_site_type_symbol
 _atom_site_label
 _atom_site_symmetry_multiplicity
 _atom_site_fract_x
 _atom_site_fract_y
 _atom_site_fract_z
 _atom_site_occupancy
  Na  Na0  1  0.55881696  0.13268516  0.10968524  1.0
  Na  Na1  1  0.88212169  0.64948738  0.19045039  1.0
  Na  Na2  1  0.07122416  0.00206913  0.42559445  1.0
  Na  Na3  1  0.85659768  0.27346757  0.95786555  1.0
  Cl  Cl4  1  0.90574527  0.21076865  0.84960357  1.0
  Cl  Cl5  1  0.39930552  0.82154290  0.19724705  1.0
  Cl  Cl6  1  0.96757014  0.71122735  0.32237230  1.0
  Cl  Cl7  1  0.08092022  0.99980957  0.70235728  1.0
