# generated using pymatgen
data_NaCl
_symmetry_space_group_name_H-M   'P 1'
_cell_length_a   5.59922264
_cell_length_b   5.59922264
_cell_length_c   9.59208329
_cell_angle_alpha   90.00000000
_cell_angle_beta   90.00000000
_cell_angle_gamma   90.00000000
_symmetry_Int_Tables_number   1
_chemical_formula_structural   NaCl
_chemical_formula_sum   'Na4 Cl4'
_cell_volume   300.72422495
_cell_formula_units_Z   4
loop_
 _symmetry_equiv_pos_site_id
 _symmetry_equiv_pos_as_xyz
  1  'x, y, z'
loop_
 _atom_site_type_symbol
 _atom_site_label
 _atom_site_symmetry_multiplicity
 _atom_site_fract_x
 _atom_site_fract_y
 _atom_site_fract_z
 _atom_site_occupancy
  Na  Na0  1  0.00000000  0.00000000  0.08809932  1.0
  Na  Na1  1  0.00000000  0.00000000  0.59758504  1.0
  Na  Na2  1  0.50000000  0.50000000  0.97289073  1.0
  Na  Na3  1  0.50000000  0.50000000  0.33424120  1.0
  Cl  Cl4  1  0.10900609  0.60900609  0.87003209  1.0
  Cl  Cl5  1  0.60916019  0.10916019  0.84809347  1.0
  Cl  Cl6  1  0.23840243  0.26159757  0.37250628  1.0
  Cl  Cl7  1  0.39903477  0.10096523  0.78506135  1.0
