# generated using pymatgen
data_NaCl
_symmetry_space_group_name_H-M   'P 1'
_cell_length_a   3.83694681
_cell_length_b   3.83694681
_cell_length_c   17.75617702
_cell_angle_alpha   90.00000000
_cell_angle_beta   90.00000000
_cell_angle_gamma   90.00000000
_symmetry_Int_Tables_number   1
_chemical_formula_structural   NaCl
_chemical_formula_sum   'Na4 Cl4'
_cell_volume   261.40929369
_cell_formula_units_Z   4
loop_
 _symmetry_equiv_pos_site_id
 _symmetry_equiv_pos_as_xyz
  1  'x, y, z'
loop_
 _atom_site_type_symbol
 _atom_site_label
 _atom_site_symmetry_multiplicity
 _atom_site_fract_x
 _atom_site_fract_y
 _atom_site_fract_z
 _atom_site_occupancy
  Na  Na0  1  0.60216519  0.15879659  0.10699260  1.0
  Na  Na1  1  0.42918221  0.00125379  0.92027322  1.0
  Na  Na2  1  0.07282584  0.14452993  0.85291313  1.0
  Na  Na3  1  0.68203428  0.11336881  0.61760902  1.0
  Cl  Cl4  1  0.58735832  0.22775473  0.96636082  1.0
  Cl  Cl5  1  0.45861522  0.28786646  0.24271879  1.0
  Cl  Cl6  1  0.86436399  0.80685691  0.89687818  1.0
  Cl  Cl7  1  0.08652982  0.89653494  0.19088734  1.0
