# generated using pymatgen
data_NaCl
_symmetry_space_group_name_H-M   'P 1'
_cell_length_a   3.12611766
_cell_length_b   3.12611766
_cell_length_c   22.11955179
_cell_angle_alpha   90.00000000
_cell_angle_beta   90.00000000
_cell_angle_gamma   90.00000000
_symmetry_Int_Tables_number   1
_chemical_formula_structural   NaCl
_chemical_formula_sum   'Na4 Cl4'
_cell_volume   216.16578894
_cell_formula_units_Z   4
loop_
 _symmetry_equiv_pos_site_id
 _symmetry_equiv_pos_as_xyz
  1  'x, y, z'
loop_
 _atom_site_type_symbol
 _atom_site_label
 _atom_site_symmetry_multiplicity
 _atom_site_fract_x
 _atom_site_fract_y
 _atom_site_fract_z
 _atom_site_occupancy
  Na  Na0  1  0.71162390  0.28459385  0.04217787  1.0
  Na  Na1  1  0.71481595  0.01780222  0.91050603  1.0
  Na  Na2  1  0.01821530  0.08913340  0.80733525  1.0
  Na  Na3  1  0.59293903  0.00064024  0.72591529  1.0
  Cl  Cl4  1  0.98379081  0.21669314  0.98245389  1.0
  Cl  Cl5  1  0.46967939  0.03901130  0.46229554  1.0
  Cl  Cl6  1  0.73476787  0.96332979  0.18256308  1.0
  Cl  Cl7  1  0.17026031  0.96563541  0.12803332  1.0
