# generated using pymatgen
data_NaCl
_symmetry_space_group_name_H-M   'P 1'
_cell_length_a   3.87671361
_cell_length_b   3.87671361
_cell_length_c   16.34176874
_cell_angle_alpha   90.00000000
_cell_angle_beta   90.00000000
_cell_angle_gamma   90.00000000
_symmetry_Int_Tables_number   1
_chemical_formula_structural   NaCl
_chemical_formula_sum   'Na4 Cl4'
_cell_volume   245.59894572
_cell_formula_units_Z   4
loop_
 _symmetry_equiv_pos_site_id
 _symmetry_equiv_pos_as_xyz
  1  'x, y, z'
loop_
 _atom_site_type_symbol
 _atom_site_label
 _atom_site_symmetry_multiplicity
 _atom_site_fract_x
 _atom_site_fract_y
 _atom_site_fract_z
 _atom_site_occupancy
  Na  Na0  1  0.47700722  0.18415328  0.01715688  1.0
  Na  Na1  1  0.26907964  0.04329638  0.95497525  1.0
  Na  Na2  1  0.28400574  0.08581446  0.79860023  1.0
  Na  Na3  1  0.63381974  0.03217207  0.55824424  1.0
  Cl  Cl4  1  0.89955711  0.25179596  0.98118697  1.0
  Cl  Cl5  1  0.56558669  0.05698429  0.22160061  1.0
  Cl  Cl6  1  0.96790831  0.83240311  0.80015316  1.0
  Cl  Cl7  1  0.04648330  0.93111160  0.18183917  1.0
