# generated using pymatgen
data_NaCl
_symmetry_space_group_name_H-M   'P 1'
_cell_length_a   3.44735175
_cell_length_b   3.44735175
_cell_length_c   21.78606615
_cell_angle_alpha   90.00000000
_cell_angle_beta   90.00000000
_cell_angle_gamma   90.00000000
_symmetry_Int_Tables_number   1
_chemical_formula_structural   NaCl
_chemical_formula_sum   'Na4 Cl4'
_cell_volume   258.91070999
_cell_formula_units_Z   4
loop_
 _symmetry_equiv_pos_site_id
 _symmetry_equiv_pos_as_xyz
  1  'x, y, z'
loop_
 _atom_site_type_symbol
 _atom_site_label
 _atom_site_symmetry_multiplicity
 _atom_site_fract_x
 _atom_site_fract_y
 _atom_site_fract_z
 _atom_site_occupancy
  Na  Na0  1  0.17755968  0.50429531  0.32845494  1.0
  Na  Na1  1  0.44976549  0.00017239  0.65169674  1.0
  Na  Na2  1  0.43180367  0.63316724  0.17096538  1.0
  Na  Na3  1  0.13882112  0.57717469  0.60576808  1.0
  Cl  Cl4  1  0.37447751  0.48888315  0.89011742  1.0
  Cl  Cl5  1  0.14094767  0.42170160  0.04691176  1.0
  Cl  Cl6  1  0.20264150  0.19220205  0.84085507  1.0
  Cl  Cl7  1  0.90497611  0.68022442  0.74256082  1.0
