# generated using pymatgen
data_NaCl
_symmetry_space_group_name_H-M   'P 1'
_cell_length_a   13.89782748
_cell_length_b   15.28066657
_cell_length_c   2.03951053
_cell_angle_alpha   90.00000000
_cell_angle_beta   116.45792020
_cell_angle_gamma   90.00000000
_symmetry_Int_Tables_number   1
_chemical_formula_structural   NaCl
_chemical_formula_sum   'Na4 Cl4'
_cell_volume   387.76198690
_cell_formula_units_Z   4
loop_
 _symmetry_equiv_pos_site_id
 _symmetry_equiv_pos_as_xyz
  1  'x, y, z'
loop_
 _atom_site_type_symbol
 _atom_site_label
 _atom_site_symmetry_multiplicity
 _atom_site_fract_x
 _atom_site_fract_y
 _atom_site_fract_z
 _atom_site_occupancy
  Na  Na0  1  0.74162331  0.42142283  0.97846065  1.0
  Na  Na1  1  0.48588748  0.50193560  0.95588293  1.0
  Na  Na2  1  0.67724695  0.19157661  0.59140673  1.0
  Na  Na3  1  0.46178153  0.82946594  0.76214466  1.0
  Cl  Cl4  1  0.60800493  0.55494336  0.04984039  1.0
  Cl  Cl5  1  0.89887960  0.36519524  0.58857391  1.0
  Cl  Cl6  1  0.91791487  0.49048756  0.56902629  1.0
  Cl  Cl7  1  0.25269534  0.13516029  0.11687708  1.0
