# generated using pymatgen
data_NaCl
_symmetry_space_group_name_H-M   'P 1'
_cell_length_a   5.30670647
_cell_length_b   5.30670647
_cell_length_c   11.31108698
_cell_angle_alpha   90.00000000
_cell_angle_beta   90.00000000
_cell_angle_gamma   90.00000000
_symmetry_Int_Tables_number   1
_chemical_formula_structural   NaCl
_chemical_formula_sum   'Na4 Cl4'
_cell_volume   318.53303114
_cell_formula_units_Z   4
loop_
 _symmetry_equiv_pos_site_id
 _symmetry_equiv_pos_as_xyz
  1  'x, y, z'
loop_
 _atom_site_type_symbol
 _atom_site_label
 _atom_site_symmetry_multiplicity
 _atom_site_fract_x
 _atom_site_fract_y
 _atom_site_fract_z
 _atom_site_occupancy
  Na  Na0  1  0.64592974  0.64592974  0.99971390  1.0
  Na  Na1  1  0.45959557  0.45959557  0.00882954  1.0
  Na  Na2  1  0.89776154  0.10223846  0.94515969  1.0
  Na  Na3  1  0.15682540  0.84317460  0.95584743  1.0
  Cl  Cl4  1  0.64297845  0.64297845  0.29878824  1.0
  Cl  Cl5  1  0.98967181  0.98967181  0.56230491  1.0
  Cl  Cl6  1  0.51852111  0.48147889  0.14006193  1.0
  Cl  Cl7  1  0.75644031  0.24355969  0.96181739  1.0
