# generated using pymatgen
data_NaCl
_symmetry_space_group_name_H-M   'P 1'
_cell_length_a   9.71015555
_cell_length_b   9.71015555
_cell_length_c   3.61130875
_cell_angle_alpha   90.00000000
_cell_angle_beta   90.00000000
_cell_angle_gamma   90.00000000
_symmetry_Int_Tables_number   1
_chemical_formula_structural   NaCl
_chemical_formula_sum   'Na4 Cl4'
_cell_volume   340.49990438
_cell_formula_units_Z   4
loop_
 _symmetry_equiv_pos_site_id
 _symmetry_equiv_pos_as_xyz
  1  'x, y, z'
loop_
 _atom_site_type_symbol
 _atom_site_label
 _atom_site_symmetry_multiplicity
 _atom_site_fract_x
 _atom_site_fract_y
 _atom_site_fract_z
 _atom_site_occupancy
  Na  Na0  1  0.58737202  0.32880843  0.96870230  1.0
  Na  Na1  1  0.54512759  0.80268020  0.76445963  1.0
  Na  Na2  1  0.66938127  0.70730950  0.95813517  1.0
  Na  Na3  1  0.58260027  0.67259917  0.34262166  1.0
  Cl  Cl4  1  0.68913791  0.39326742  0.30939865  1.0
  Cl  Cl5  1  0.99597938  0.48757366  0.21028153  1.0
  Cl  Cl6  1  0.35131403  0.95033768  0.77496234  1.0
  Cl  Cl7  1  0.78671754  0.54900357  0.31685508  1.0
