# generated using pymatgen
data_NaCl
_symmetry_space_group_name_H-M   'P 1'
_cell_length_a   7.59672871
_cell_length_b   7.59672871
_cell_length_c   4.20534734
_cell_angle_alpha   90.00000000
_cell_angle_beta   90.00000000
_cell_angle_gamma   90.00000000
_symmetry_Int_Tables_number   1
_chemical_formula_structural   NaCl
_chemical_formula_sum   'Na4 Cl4'
_cell_volume   242.69180232
_cell_formula_units_Z   4
loop_
 _symmetry_equiv_pos_site_id
 _symmetry_equiv_pos_as_xyz
  1  'x, y, z'
loop_
 _atom_site_type_symbol
 _atom_site_label
 _atom_site_symmetry_multiplicity
 _atom_site_fract_x
 _atom_site_fract_y
 _atom_site_fract_z
 _atom_site_occupancy
  Na  Na0  1  0.70000287  0.23428416  0.80324364  1.0
  Na  Na1  1  0.92314419  0.58106946  0.73742244  1.0
  Na  Na2  1  0.83783575  0.74006227  0.76917207  1.0
  Na  Na3  1  0.06673128  0.53533334  0.11597398  1.0
  Cl  Cl4  1  0.62228660  0.41585867  0.36142416  1.0
  Cl  Cl5  1  0.85139220  0.11462807  0.02125245  1.0
  Cl  Cl6  1  0.51885926  0.76166462  0.88873515  1.0
  Cl  Cl7  1  0.69267732  0.82490298  0.41768604  1.0
