# generated using pymatgen
data_NaCl
_symmetry_space_group_name_H-M   'P 1'
_cell_length_a   5.29239769
_cell_length_b   5.29239769
_cell_length_c   10.03327612
_cell_angle_alpha   90.00000000
_cell_angle_beta   90.00000000
_cell_angle_gamma   120.00000000
_symmetry_Int_Tables_number   1
_chemical_formula_structural   NaCl
_chemical_formula_sum   'Na4 Cl4'
_cell_volume   243.37633035
_cell_formula_units_Z   4
loop_
 _symmetry_equiv_pos_site_id
 _symmetry_equiv_pos_as_xyz
  1  'x, y, z'
loop_
 _atom_site_type_symbol
 _atom_site_label
 _atom_site_symmetry_multiplicity
 _atom_site_fract_x
 _atom_site_fract_y
 _atom_site_fract_z
 _atom_site_occupancy
  Na  Na0  1  0.00000000  0.00000000  0.95707470  1.0
  Na  Na1  1  0.53688027  0.00000000  0.12863610  1.0
  Na  Na2  1  0.00000000  0.62062736  0.83464864  1.0
  Na  Na3  1  0.44918535  0.44918535  0.16546395  1.0
  Cl  Cl4  1  0.00000000  0.00000000  0.63043381  1.0
  Cl  Cl5  1  0.11345893  0.00000000  0.54528821  1.0
  Cl  Cl6  1  0.00000000  0.71689136  0.64670737  1.0
  Cl  Cl7  1  0.80545904  0.80545904  0.53588836  1.0
