# generated using pymatgen
data_NaCl
_symmetry_space_group_name_H-M   'P 1'
_cell_length_a   6.81763571
_cell_length_b   6.81763571
_cell_length_c   4.18512787
_cell_angle_alpha   90.00000000
_cell_angle_beta   90.00000000
_cell_angle_gamma   90.00000000
_symmetry_Int_Tables_number   1
_chemical_formula_structural   NaCl
_chemical_formula_sum   'Na4 Cl4'
_cell_volume   194.52539910
_cell_formula_units_Z   4
loop_
 _symmetry_equiv_pos_site_id
 _symmetry_equiv_pos_as_xyz
  1  'x, y, z'
loop_
 _atom_site_type_symbol
 _atom_site_label
 _atom_site_symmetry_multiplicity
 _atom_site_fract_x
 _atom_site_fract_y
 _atom_site_fract_z
 _atom_site_occupancy
  Na  Na0  1  0.78236909  0.20892606  0.98037826  1.0
  Na  Na1  1  0.53679537  0.53971673  0.73453484  1.0
  Na  Na2  1  0.75326173  0.68314178  0.45860786  1.0
  Na  Na3  1  0.08704476  0.49692582  0.64125193  1.0
  Cl  Cl4  1  0.64955652  0.34987857  0.42488012  1.0
  Cl  Cl5  1  0.94941594  0.11677008  0.16160704  1.0
  Cl  Cl6  1  0.54675256  0.73528157  0.28487954  1.0
  Cl  Cl7  1  0.78576460  0.83060045  0.88829485  1.0
