# generated using pymatgen
data_NaCl
_symmetry_space_group_name_H-M   'P 1'
_cell_length_a   4.28269131
_cell_length_b   11.24270473
_cell_length_c   12.34897927
_cell_angle_alpha   90.00000000
_cell_angle_beta   141.83298973
_cell_angle_gamma   90.00000000
_symmetry_Int_Tables_number   1
_chemical_formula_structural   NaCl
_chemical_formula_sum   'Na4 Cl4'
_cell_volume   367.43122468
_cell_formula_units_Z   4
loop_
 _symmetry_equiv_pos_site_id
 _symmetry_equiv_pos_as_xyz
  1  'x, y, z'
loop_
 _atom_site_type_symbol
 _atom_site_label
 _atom_site_symmetry_multiplicity
 _atom_site_fract_x
 _atom_site_fract_y
 _atom_site_fract_z
 _atom_site_occupancy
  Na  Na0  1  0.95647896  0.23573571  0.83531045  1.0
  Na  Na1  1  0.22363668  0.43968832  0.30750854  1.0
  Na  Na2  1  0.39818364  0.86119576  0.23783852  1.0
  Na  Na3  1  0.60186853  0.57709285  0.99276157  1.0
  Cl  Cl4  1  0.11692669  0.33982855  0.00018358  1.0
  Cl  Cl5  1  0.98105423  0.85856709  0.84894697  1.0
  Cl  Cl6  1  0.22413188  0.27914657  0.50183228  1.0
  Cl  Cl7  1  0.38954979  0.27902497  0.11758736  1.0
