# generated using pymatgen
data_NaCl
_symmetry_space_group_name_H-M   'P 1'
_cell_length_a   4.54122799
_cell_length_b   4.54122799
_cell_length_c   12.65063441
_cell_angle_alpha   90.00000000
_cell_angle_beta   90.00000000
_cell_angle_gamma   120.00000000
_symmetry_Int_Tables_number   1
_chemical_formula_structural   NaCl
_chemical_formula_sum   'Na4 Cl4'
_cell_volume   225.93813987
_cell_formula_units_Z   4
loop_
 _symmetry_equiv_pos_site_id
 _symmetry_equiv_pos_as_xyz
  1  'x, y, z'
loop_
 _atom_site_type_symbol
 _atom_site_label
 _atom_site_symmetry_multiplicity
 _atom_site_fract_x
 _atom_site_fract_y
 _atom_site_fract_z
 _atom_site_occupancy
  Na  Na0  1  0.00000000  0.00000000  0.90735121  1.0
  Na  Na1  1  0.57281255  0.00000000  0.26873768  1.0
  Na  Na2  1  0.00000000  0.64105663  0.71806119  1.0
  Na  Na3  1  0.48124540  0.48124540  0.51070878  1.0
  Cl  Cl4  1  0.00000000  0.00000000  0.45704120  1.0
  Cl  Cl5  1  0.04976272  0.00000000  0.71934018  1.0
  Cl  Cl6  1  0.00000000  0.86791019  0.26071709  1.0
  Cl  Cl7  1  0.05230191  0.05230191  0.02422215  1.0
