# generated using pymatgen
data_NaCl
_symmetry_space_group_name_H-M   'P 1'
_cell_length_a   5.09941153
_cell_length_b   5.09941153
_cell_length_c   11.43934694
_cell_angle_alpha   90.00000000
_cell_angle_beta   90.00000000
_cell_angle_gamma   90.00000000
_symmetry_Int_Tables_number   1
_chemical_formula_structural   NaCl
_chemical_formula_sum   'Na4 Cl4'
_cell_volume   297.46875440
_cell_formula_units_Z   4
loop_
 _symmetry_equiv_pos_site_id
 _symmetry_equiv_pos_as_xyz
  1  'x, y, z'
loop_
 _atom_site_type_symbol
 _atom_site_label
 _atom_site_symmetry_multiplicity
 _atom_site_fract_x
 _atom_site_fract_y
 _atom_site_fract_z
 _atom_site_occupancy
  Na  Na0  1  0.90402493  0.90402493  0.81448150  1.0
  Na  Na1  1  0.24982494  0.24982494  0.14217599  1.0
  Na  Na2  1  0.44730377  0.55269623  0.17772324  1.0
  Na  Na3  1  0.25003393  0.74996607  0.19054985  1.0
  Cl  Cl4  1  0.00000000  0.00000000  0.22466240  1.0
  Cl  Cl5  1  0.00000000  0.00000000  0.00770583  1.0
  Cl  Cl6  1  0.00000000  0.00000000  0.35722669  1.0
  Cl  Cl7  1  0.00000000  0.00000000  0.14350946  1.0
