# generated using pymatgen
data_NaCl
_symmetry_space_group_name_H-M   'P 1'
_cell_length_a   3.06569369
_cell_length_b   14.92544948
_cell_length_c   3.75252044
_cell_angle_alpha   90.00000000
_cell_angle_beta   90.00000000
_cell_angle_gamma   90.00000000
_symmetry_Int_Tables_number   1
_chemical_formula_structural   NaCl
_chemical_formula_sum   'Na4 Cl4'
_cell_volume   171.70353850
_cell_formula_units_Z   4
loop_
 _symmetry_equiv_pos_site_id
 _symmetry_equiv_pos_as_xyz
  1  'x, y, z'
loop_
 _atom_site_type_symbol
 _atom_site_label
 _atom_site_symmetry_multiplicity
 _atom_site_fract_x
 _atom_site_fract_y
 _atom_site_fract_z
 _atom_site_occupancy
  Na  Na0  1  0.25000000  0.75410754  0.90041831  1.0
  Na  Na1  1  0.75000000  0.42980883  0.07935190  1.0
  Na  Na2  1  0.75000000  0.81340411  0.20586945  1.0
  Na  Na3  1  0.25000000  0.43555543  0.31838574  1.0
  Cl  Cl4  1  0.25000000  0.30224064  0.28131777  1.0
  Cl  Cl5  1  0.75000000  0.91973032  0.64742221  1.0
  Cl  Cl6  1  0.75000000  0.04399458  0.99282428  1.0
  Cl  Cl7  1  0.25000000  0.85833371  0.00584302  1.0
