# generated using pymatgen
data_NaCl
_symmetry_space_group_name_H-M   'P 1'
_cell_length_a   5.95390839
_cell_length_b   5.95390839
_cell_length_c   9.98811134
_cell_angle_alpha   90.00000000
_cell_angle_beta   90.00000000
_cell_angle_gamma   90.00000000
_symmetry_Int_Tables_number   1
_chemical_formula_structural   NaCl
_chemical_formula_sum   'Na4 Cl4'
_cell_volume   354.06880976
_cell_formula_units_Z   4
loop_
 _symmetry_equiv_pos_site_id
 _symmetry_equiv_pos_as_xyz
  1  'x, y, z'
loop_
 _atom_site_type_symbol
 _atom_site_label
 _atom_site_symmetry_multiplicity
 _atom_site_fract_x
 _atom_site_fract_y
 _atom_site_fract_z
 _atom_site_occupancy
  Na  Na0  1  0.49479429  0.13549752  0.93461630  1.0
  Na  Na1  1  0.50971332  0.50060607  0.03479264  1.0
  Na  Na2  1  0.86723517  0.61778599  0.97231518  1.0
  Na  Na3  1  0.08270320  0.28995198  0.54743297  1.0
  Cl  Cl4  1  0.00000000  0.00000000  0.26370897  1.0
  Cl  Cl5  1  0.00000000  0.00000000  0.00423356  1.0
  Cl  Cl6  1  0.00000000  0.50000000  0.47824369  1.0
  Cl  Cl7  1  0.50000000  0.00000000  0.01806826  1.0
