# generated using pymatgen
data_NaCl
_symmetry_space_group_name_H-M   'P 1'
_cell_length_a   8.59314736
_cell_length_b   12.28724583
_cell_length_c   2.72662450
_cell_angle_alpha   90.00000000
_cell_angle_beta   124.35053672
_cell_angle_gamma   90.00000000
_symmetry_Int_Tables_number   1
_chemical_formula_structural   NaCl
_chemical_formula_sum   'Na4 Cl4'
_cell_volume   237.68529306
_cell_formula_units_Z   4
loop_
 _symmetry_equiv_pos_site_id
 _symmetry_equiv_pos_as_xyz
  1  'x, y, z'
loop_
 _atom_site_type_symbol
 _atom_site_label
 _atom_site_symmetry_multiplicity
 _atom_site_fract_x
 _atom_site_fract_y
 _atom_site_fract_z
 _atom_site_occupancy
  Na  Na0  1  0.00000000  0.66411185  0.50000000  1.0
  Na  Na1  1  0.50000000  0.57969371  0.50000000  1.0
  Na  Na2  1  0.61430555  0.03822562  0.38740811  1.0
  Na  Na3  1  0.46501617  0.41098875  0.62696988  1.0
  Cl  Cl4  1  0.00000000  0.41994308  0.50000000  1.0
  Cl  Cl5  1  0.00000000  0.94719180  0.50000000  1.0
  Cl  Cl6  1  0.50000000  0.56701587  0.00000000  1.0
  Cl  Cl7  1  0.50000000  0.77690273  0.00000000  1.0
