# generated using pymatgen
data_NaCl
_symmetry_space_group_name_H-M   'P 1'
_cell_length_a   5.16974606
_cell_length_b   5.16974606
_cell_length_c   4.44087346
_cell_angle_alpha   90.00000000
_cell_angle_beta   90.00000000
_cell_angle_gamma   90.00000000
_symmetry_Int_Tables_number   1
_chemical_formula_structural   NaCl
_chemical_formula_sum   'Na4 Cl4'
_cell_volume   118.68800233
_cell_formula_units_Z   4
loop_
 _symmetry_equiv_pos_site_id
 _symmetry_equiv_pos_as_xyz
  1  'x, y, z'
loop_
 _atom_site_type_symbol
 _atom_site_label
 _atom_site_symmetry_multiplicity
 _atom_site_fract_x
 _atom_site_fract_y
 _atom_site_fract_z
 _atom_site_occupancy
  Na  Na0  1  0.67487477  0.27331927  0.97021123  1.0
  Na  Na1  1  0.51638079  0.45440959  0.70856362  1.0
  Na  Na2  1  0.82685197  0.75588261  0.79975990  1.0
  Na  Na3  1  0.25841795  0.73633450  0.10343184  1.0
  Cl  Cl4  1  0.57499931  0.26192440  0.45888893  1.0
  Cl  Cl5  1  0.79438337  0.14158646  0.12805944  1.0
  Cl  Cl6  1  0.44773884  0.89940161  0.76789523  1.0
  Cl  Cl7  1  0.54657559  0.80290090  0.33952154  1.0
