# generated using pymatgen
data_NaCl
_symmetry_space_group_name_H-M   'P 1'
_cell_length_a   6.65321268
_cell_length_b   11.42651269
_cell_length_c   4.09630961
_cell_angle_alpha   90.00000000
_cell_angle_beta   130.04658995
_cell_angle_gamma   90.00000000
_symmetry_Int_Tables_number   1
_chemical_formula_structural   NaCl
_chemical_formula_sum   'Na4 Cl4'
_cell_volume   238.39398014
_cell_formula_units_Z   4
loop_
 _symmetry_equiv_pos_site_id
 _symmetry_equiv_pos_as_xyz
  1  'x, y, z'
loop_
 _atom_site_type_symbol
 _atom_site_label
 _atom_site_symmetry_multiplicity
 _atom_site_fract_x
 _atom_site_fract_y
 _atom_site_fract_z
 _atom_site_occupancy
  Na  Na0  1  0.95059059  0.94058499  0.88804206  1.0
  Na  Na1  1  0.47792862  0.52861298  0.22621382  1.0
  Na  Na2  1  0.58969380  0.20796005  0.63296980  1.0
  Na  Na3  1  0.61241047  0.47362288  0.64682334  1.0
  Cl  Cl4  1  0.47143867  0.49036757  0.78796943  1.0
  Cl  Cl5  1  0.15644036  0.03772138  0.99327969  1.0
  Cl  Cl6  1  0.82656228  0.69255701  0.39223664  1.0
  Cl  Cl7  1  0.29586005  0.35365782  0.99823293  1.0
