# generated using pymatgen
data_NaCl
_symmetry_space_group_name_H-M   'P 1'
_cell_length_a   7.38945041
_cell_length_b   7.38945041
_cell_length_c   4.14001776
_cell_angle_alpha   90.00000000
_cell_angle_beta   90.00000000
_cell_angle_gamma   90.00000000
_symmetry_Int_Tables_number   1
_chemical_formula_structural   NaCl
_chemical_formula_sum   'Na4 Cl4'
_cell_volume   226.06143604
_cell_formula_units_Z   4
loop_
 _symmetry_equiv_pos_site_id
 _symmetry_equiv_pos_as_xyz
  1  'x, y, z'
loop_
 _atom_site_type_symbol
 _atom_site_label
 _atom_site_symmetry_multiplicity
 _atom_site_fract_x
 _atom_site_fract_y
 _atom_site_fract_z
 _atom_site_occupancy
  Na  Na0  1  0.62486094  0.28527054  0.98069234  1.0
  Na  Na1  1  0.63257263  0.46869558  0.60990898  1.0
  Na  Na2  1  0.71889999  0.70029660  0.20148946  1.0
  Na  Na3  1  0.48089567  0.61092479  0.06674929  1.0
  Cl  Cl4  1  0.65095985  0.30631908  0.32553229  1.0
  Cl  Cl5  1  0.98444593  0.18458037  0.76553218  1.0
  Cl  Cl6  1  0.32063930  0.99746472  0.09581146  1.0
  Cl  Cl7  1  0.83239629  0.56158167  0.08030523  1.0
