# generated using pymatgen
data_NaCl
_symmetry_space_group_name_H-M   'P 1'
_cell_length_a   4.60676870
_cell_length_b   4.60676870
_cell_length_c   4.60676870
_cell_angle_alpha   90.00000000
_cell_angle_beta   90.00000000
_cell_angle_gamma   90.00000000
_symmetry_Int_Tables_number   1
_chemical_formula_structural   NaCl
_chemical_formula_sum   'Na4 Cl4'
_cell_volume   97.76630964
_cell_formula_units_Z   4
loop_
 _symmetry_equiv_pos_site_id
 _symmetry_equiv_pos_as_xyz
  1  'x, y, z'
loop_
 _atom_site_type_symbol
 _atom_site_label
 _atom_site_symmetry_multiplicity
 _atom_site_fract_x
 _atom_site_fract_y
 _atom_site_fract_z
 _atom_site_occupancy
  Na  Na0  1  0.89996766  0.89996766  0.89996766  1.0
  Na  Na1  1  0.89776293  0.39776293  0.10223707  1.0
  Na  Na2  1  0.40195471  0.09804529  0.90195471  1.0
  Na  Na3  1  0.05267783  0.94732217  0.44732217  1.0
  Cl  Cl4  1  0.46435942  0.46435942  0.46435942  1.0
  Cl  Cl5  1  0.39772544  0.89772544  0.60227456  1.0
  Cl  Cl6  1  0.17869678  0.32130322  0.67869678  1.0
  Cl  Cl7  1  0.84427737  0.15572263  0.65572263  1.0
