# generated using pymatgen
data_NaCl
_symmetry_space_group_name_H-M   'P 1'
_cell_length_a   6.49528526
_cell_length_b   15.74725400
_cell_length_c   3.84644859
_cell_angle_alpha   90.00000000
_cell_angle_beta   90.00000000
_cell_angle_gamma   90.00000000
_symmetry_Int_Tables_number   1
_chemical_formula_structural   NaCl
_chemical_formula_sum   'Na4 Cl4'
_cell_volume   393.42594261
_cell_formula_units_Z   4
loop_
 _symmetry_equiv_pos_site_id
 _symmetry_equiv_pos_as_xyz
  1  'x, y, z'
loop_
 _atom_site_type_symbol
 _atom_site_label
 _atom_site_symmetry_multiplicity
 _atom_site_fract_x
 _atom_site_fract_y
 _atom_site_fract_z
 _atom_site_occupancy
  Na  Na0  1  0.78593373  0.24523230  0.25000000  1.0
  Na  Na1  1  0.62388494  0.49905301  0.75000000  1.0
  Na  Na2  1  0.28807132  0.61190957  0.25000000  1.0
  Na  Na3  1  0.41957779  0.36315820  0.75000000  1.0
  Cl  Cl4  1  0.60488147  0.23980263  0.25000000  1.0
  Cl  Cl5  1  0.80865415  0.10700284  0.75000000  1.0
  Cl  Cl6  1  0.89227166  0.16126012  0.25000000  1.0
  Cl  Cl7  1  0.42500017  0.78266014  0.75000000  1.0
