# generated using pymatgen
data_NaCl
_symmetry_space_group_name_H-M   'P 1'
_cell_length_a   5.38789636
_cell_length_b   14.49185903
_cell_length_c   3.41932083
_cell_angle_alpha   90.00000000
_cell_angle_beta   60.74890482
_cell_angle_gamma   90.00000000
_symmetry_Int_Tables_number   1
_chemical_formula_structural   NaCl
_chemical_formula_sum   'Na4 Cl4'
_cell_volume   232.93888103
_cell_formula_units_Z   4
loop_
 _symmetry_equiv_pos_site_id
 _symmetry_equiv_pos_as_xyz
  1  'x, y, z'
loop_
 _atom_site_type_symbol
 _atom_site_label
 _atom_site_symmetry_multiplicity
 _atom_site_fract_x
 _atom_site_fract_y
 _atom_site_fract_z
 _atom_site_occupancy
  Na  Na0  1  0.83375248  0.24240801  0.51894229  1.0
  Na  Na1  1  0.53908881  0.38267485  0.29815874  1.0
  Na  Na2  1  0.47482945  0.80091987  0.21239354  1.0
  Na  Na3  1  0.50706002  0.49132055  0.68002335  1.0
  Cl  Cl4  1  0.00000000  0.52892883  0.25000000  1.0
  Cl  Cl5  1  0.00000000  0.07899343  0.75000000  1.0
  Cl  Cl6  1  0.50000000  0.00000000  0.00000000  1.0
  Cl  Cl7  1  0.50000000  0.00000000  0.50000000  1.0
