# generated using pymatgen
data_NaCl
_symmetry_space_group_name_H-M   'P 1'
_cell_length_a   7.60463458
_cell_length_b   12.97741097
_cell_length_c   3.42006076
_cell_angle_alpha   90.00000000
_cell_angle_beta   129.36776666
_cell_angle_gamma   90.00000000
_symmetry_Int_Tables_number   1
_chemical_formula_structural   NaCl
_chemical_formula_sum   'Na4 Cl4'
_cell_volume   260.93394900
_cell_formula_units_Z   4
loop_
 _symmetry_equiv_pos_site_id
 _symmetry_equiv_pos_as_xyz
  1  'x, y, z'
loop_
 _atom_site_type_symbol
 _atom_site_label
 _atom_site_symmetry_multiplicity
 _atom_site_fract_x
 _atom_site_fract_y
 _atom_site_fract_z
 _atom_site_occupancy
  Na  Na0  1  0.93388788  0.31695730  0.94800674  1.0
  Na  Na1  1  0.56854934  0.52985753  0.17811461  1.0
  Na  Na2  1  0.13303261  0.87629609  0.75103279  1.0
  Na  Na3  1  0.06333606  0.86413866  0.07288863  1.0
  Cl  Cl4  1  0.41399060  0.47222874  0.70655565  1.0
  Cl  Cl5  1  0.11414793  0.94620026  0.89167792  1.0
  Cl  Cl6  1  0.36508909  0.17014818  0.23337097  1.0
  Cl  Cl7  1  0.79737070  0.87053271  0.03000057  1.0
