# generated using pymatgen
data_NaCl
_symmetry_space_group_name_H-M   'P 1'
_cell_length_a   6.22494323
_cell_length_b   9.95691192
_cell_length_c   4.72835478
_cell_angle_alpha   90.00000000
_cell_angle_beta   90.00000000
_cell_angle_gamma   90.00000000
_symmetry_Int_Tables_number   1
_chemical_formula_structural   NaCl
_chemical_formula_sum   'Na4 Cl4'
_cell_volume   293.06915742
_cell_formula_units_Z   4
loop_
 _symmetry_equiv_pos_site_id
 _symmetry_equiv_pos_as_xyz
  1  'x, y, z'
loop_
 _atom_site_type_symbol
 _atom_site_label
 _atom_site_symmetry_multiplicity
 _atom_site_fract_x
 _atom_site_fract_y
 _atom_site_fract_z
 _atom_site_occupancy
  Na  Na0  1  0.70371139  0.13113698  0.76537701  1.0
  Na  Na1  1  0.49389176  0.59690999  0.00051558  1.0
  Na  Na2  1  0.34671061  0.75559075  0.45472104  1.0
  Na  Na3  1  0.95755494  0.31571101  0.07081886  1.0
  Cl  Cl4  1  0.25000000  0.28152020  0.67595497  1.0
  Cl  Cl5  1  0.75000000  0.08006399  0.44661421  1.0
  Cl  Cl6  1  0.25000000  0.63959027  0.52123479  1.0
  Cl  Cl7  1  0.75000000  0.51982380  0.67660939  1.0
