# generated using pymatgen
data_NaCl
_symmetry_space_group_name_H-M   'P 1'
_cell_length_a   5.41094222
_cell_length_b   5.41094222
_cell_length_c   6.66859502
_cell_angle_alpha   90.00000000
_cell_angle_beta   90.00000000
_cell_angle_gamma   90.00000000
_symmetry_Int_Tables_number   1
_chemical_formula_structural   NaCl
_chemical_formula_sum   'Na4 Cl4'
_cell_volume   195.24509695
_cell_formula_units_Z   4
loop_
 _symmetry_equiv_pos_site_id
 _symmetry_equiv_pos_as_xyz
  1  'x, y, z'
loop_
 _atom_site_type_symbol
 _atom_site_label
 _atom_site_symmetry_multiplicity
 _atom_site_fract_x
 _atom_site_fract_y
 _atom_site_fract_z
 _atom_site_occupancy
  Na  Na0  1  0.86203588  0.86203588  0.62500000  1.0
  Na  Na1  1  0.52242524  0.52242524  0.12500000  1.0
  Na  Na2  1  0.46064341  0.53935659  0.37500000  1.0
  Na  Na3  1  0.48409769  0.51590231  0.87500000  1.0
  Cl  Cl4  1  0.51732033  0.51732033  0.62500000  1.0
  Cl  Cl5  1  0.96565612  0.96565612  0.12500000  1.0
  Cl  Cl6  1  0.15353522  0.84646478  0.37500000  1.0
  Cl  Cl7  1  0.03365835  0.96634165  0.87500000  1.0
