# generated using pymatgen
data_NaCl
_symmetry_space_group_name_H-M   'P 1'
_cell_length_a   4.63194978
_cell_length_b   12.49036000
_cell_length_c   5.65359171
_cell_angle_alpha   90.00000000
_cell_angle_beta   90.00000000
_cell_angle_gamma   90.00000000
_symmetry_Int_Tables_number   1
_chemical_formula_structural   NaCl
_chemical_formula_sum   'Na4 Cl4'
_cell_volume   327.08696681
_cell_formula_units_Z   4
loop_
 _symmetry_equiv_pos_site_id
 _symmetry_equiv_pos_as_xyz
  1  'x, y, z'
loop_
 _atom_site_type_symbol
 _atom_site_label
 _atom_site_symmetry_multiplicity
 _atom_site_fract_x
 _atom_site_fract_y
 _atom_site_fract_z
 _atom_site_occupancy
  Na  Na0  1  0.64036568  0.55844420  0.99975114  1.0
  Na  Na1  1  0.17458337  0.27188012  0.62343225  1.0
  Na  Na2  1  0.36767143  0.70765421  0.08301574  1.0
  Na  Na3  1  0.92428297  0.04446736  0.90733656  1.0
  Cl  Cl4  1  0.50001406  0.55322582  0.16962094  1.0
  Cl  Cl5  1  0.62631752  0.03670828  0.22624493  1.0
  Cl  Cl6  1  0.25804937  0.84028612  0.16403072  1.0
  Cl  Cl7  1  0.85049455  0.93469864  0.14797131  1.0
