# generated using pymatgen
data_NaCl
_symmetry_space_group_name_H-M   'P 1'
_cell_length_a   5.08623028
_cell_length_b   5.08623028
_cell_length_c   4.44990528
_cell_angle_alpha   90.00000000
_cell_angle_beta   90.00000000
_cell_angle_gamma   90.00000000
_symmetry_Int_Tables_number   1
_chemical_formula_structural   NaCl
_chemical_formula_sum   'Na4 Cl4'
_cell_volume   115.11788577
_cell_formula_units_Z   4
loop_
 _symmetry_equiv_pos_site_id
 _symmetry_equiv_pos_as_xyz
  1  'x, y, z'
loop_
 _atom_site_type_symbol
 _atom_site_label
 _atom_site_symmetry_multiplicity
 _atom_site_fract_x
 _atom_site_fract_y
 _atom_site_fract_z
 _atom_site_occupancy
  Na  Na0  1  0.82513022  0.82513022  0.50000000  1.0
  Na  Na1  1  0.51690063  0.51690063  0.50000000  1.0
  Na  Na2  1  0.81269016  0.18730984  0.00000000  1.0
  Na  Na3  1  0.20944476  0.79055524  0.00000000  1.0
  Cl  Cl4  1  0.51719503  0.51719503  0.00000000  1.0
  Cl  Cl5  1  0.96502830  0.96502830  0.00000000  1.0
  Cl  Cl6  1  0.67644483  0.32355517  0.50000000  1.0
  Cl  Cl7  1  0.89032510  0.10967490  0.50000000  1.0
