# generated using pymatgen
data_NaCl
_symmetry_space_group_name_H-M   'P 1'
_cell_length_a   6.84850241
_cell_length_b   12.62930181
_cell_length_c   4.36176897
_cell_angle_alpha   90.00000000
_cell_angle_beta   90.00000000
_cell_angle_gamma   90.00000000
_symmetry_Int_Tables_number   1
_chemical_formula_structural   NaCl
_chemical_formula_sum   'Na4 Cl4'
_cell_volume   377.25726633
_cell_formula_units_Z   4
loop_
 _symmetry_equiv_pos_site_id
 _symmetry_equiv_pos_as_xyz
  1  'x, y, z'
loop_
 _atom_site_type_symbol
 _atom_site_label
 _atom_site_symmetry_multiplicity
 _atom_site_fract_x
 _atom_site_fract_y
 _atom_site_fract_z
 _atom_site_occupancy
  Na  Na0  1  0.50000000  0.24230542  0.93211635  1.0
  Na  Na1  1  0.50000000  0.42209125  0.74698658  1.0
  Na  Na2  1  0.50000000  0.54092487  0.24771496  1.0
  Na  Na3  1  0.50000000  0.03828075  0.06080833  1.0
  Cl  Cl4  1  0.50000000  0.29400662  0.64270973  1.0
  Cl  Cl5  1  0.50000000  0.99949498  0.41929478  1.0
  Cl  Cl6  1  0.50000000  0.05157143  0.77965085  1.0
  Cl  Cl7  1  0.50000000  0.68073789  0.05473305  1.0
