# generated using pymatgen
data_NaCl
_symmetry_space_group_name_H-M   'P 1'
_cell_length_a   4.25196382
_cell_length_b   4.25196382
_cell_length_c   10.43125100
_cell_angle_alpha   90.00000000
_cell_angle_beta   90.00000000
_cell_angle_gamma   90.00000000
_symmetry_Int_Tables_number   1
_chemical_formula_structural   NaCl
_chemical_formula_sum   'Na4 Cl4'
_cell_volume   188.58863476
_cell_formula_units_Z   4
loop_
 _symmetry_equiv_pos_site_id
 _symmetry_equiv_pos_as_xyz
  1  'x, y, z'
loop_
 _atom_site_type_symbol
 _atom_site_label
 _atom_site_symmetry_multiplicity
 _atom_site_fract_x
 _atom_site_fract_y
 _atom_site_fract_z
 _atom_site_occupancy
  Na  Na0  1  0.79090254  0.79090254  0.99789552  1.0
  Na  Na1  1  0.47285910  0.47285910  0.09268049  1.0
  Na  Na2  1  0.63984575  0.36015425  0.53441542  1.0
  Na  Na3  1  0.46876695  0.53123305  0.92202299  1.0
  Cl  Cl4  1  0.00000000  0.50000000  0.31551215  1.0
  Cl  Cl5  1  0.50000000  0.00000000  0.39595746  1.0
  Cl  Cl6  1  0.00000000  0.50000000  0.45127448  1.0
  Cl  Cl7  1  0.50000000  0.00000000  0.52347915  1.0
