# generated using pymatgen
data_NaCl
_symmetry_space_group_name_H-M   'P 1'
_cell_length_a   3.75685043
_cell_length_b   4.94408690
_cell_length_c   7.26493654
_cell_angle_alpha   90.00000000
_cell_angle_beta   90.00000000
_cell_angle_gamma   90.00000000
_symmetry_Int_Tables_number   1
_chemical_formula_structural   NaCl
_chemical_formula_sum   'Na4 Cl4'
_cell_volume   134.94034793
_cell_formula_units_Z   4
loop_
 _symmetry_equiv_pos_site_id
 _symmetry_equiv_pos_as_xyz
  1  'x, y, z'
loop_
 _atom_site_type_symbol
 _atom_site_label
 _atom_site_symmetry_multiplicity
 _atom_site_fract_x
 _atom_site_fract_y
 _atom_site_fract_z
 _atom_site_occupancy
  Na  Na0  1  0.79340361  0.61578836  0.90312613  1.0
  Na  Na1  1  0.07844447  0.34249444  0.87316993  1.0
  Na  Na2  1  0.22077506  0.99666767  0.78781064  1.0
  Na  Na3  1  0.56421747  0.38286095  0.28929157  1.0
  Cl  Cl4  1  0.00000000  0.61246545  0.57096883  1.0
  Cl  Cl5  1  0.50000000  0.08699146  0.19413361  1.0
  Cl  Cl6  1  0.00000000  0.59469731  0.17373590  1.0
  Cl  Cl7  1  0.50000000  0.45229768  0.42962176  1.0
