# generated using pymatgen
data_NaCl
_symmetry_space_group_name_H-M   'P 1'
_cell_length_a   4.55274005
_cell_length_b   4.55274005
_cell_length_c   11.76220018
_cell_angle_alpha   90.00000000
_cell_angle_beta   90.00000000
_cell_angle_gamma   90.00000000
_symmetry_Int_Tables_number   1
_chemical_formula_structural   NaCl
_chemical_formula_sum   'Na4 Cl4'
_cell_volume   243.80032159
_cell_formula_units_Z   4
loop_
 _symmetry_equiv_pos_site_id
 _symmetry_equiv_pos_as_xyz
  1  'x, y, z'
loop_
 _atom_site_type_symbol
 _atom_site_label
 _atom_site_symmetry_multiplicity
 _atom_site_fract_x
 _atom_site_fract_y
 _atom_site_fract_z
 _atom_site_occupancy
  Na  Na0  1  0.93246333  0.30347512  0.86883687  1.0
  Na  Na1  1  0.11153785  0.67888914  0.64092209  1.0
  Na  Na2  1  0.81981976  0.61106423  0.58818957  1.0
  Na  Na3  1  0.15606908  0.74971649  0.82051683  1.0
  Cl  Cl4  1  0.08919143  0.21122050  0.54049401  1.0
  Cl  Cl5  1  0.94850771  0.16258061  0.19603975  1.0
  Cl  Cl6  1  0.23216356  0.80455294  0.26851164  1.0
  Cl  Cl7  1  0.70878513  0.70871052  0.77895061  1.0
