# generated using pymatgen
data_NaCl
_symmetry_space_group_name_H-M   'P 1'
_cell_length_a   6.35063404
_cell_length_b   8.42008872
_cell_length_c   3.97362625
_cell_angle_alpha   90.00000000
_cell_angle_beta   90.00000000
_cell_angle_gamma   90.00000000
_symmetry_Int_Tables_number   1
_chemical_formula_structural   NaCl
_chemical_formula_sum   'Na4 Cl4'
_cell_volume   212.48132723
_cell_formula_units_Z   4
loop_
 _symmetry_equiv_pos_site_id
 _symmetry_equiv_pos_as_xyz
  1  'x, y, z'
loop_
 _atom_site_type_symbol
 _atom_site_label
 _atom_site_symmetry_multiplicity
 _atom_site_fract_x
 _atom_site_fract_y
 _atom_site_fract_z
 _atom_site_occupancy
  Na  Na0  1  0.75325556  0.35186586  0.97554113  1.0
  Na  Na1  1  0.55280738  0.51320922  0.70694792  1.0
  Na  Na2  1  0.06463638  0.83059879  0.29740392  1.0
  Na  Na3  1  0.58730987  0.63772484  0.43077481  1.0
  Cl  Cl4  1  0.39735523  0.32272021  0.05462135  1.0
  Cl  Cl5  1  0.43123106  0.13013044  0.15148103  1.0
  Cl  Cl6  1  0.11417861  0.25107397  0.82120089  1.0
  Cl  Cl7  1  0.82261793  0.58875774  0.52991728  1.0
