# generated using pymatgen
data_NaCl
_symmetry_space_group_name_H-M   'P 1'
_cell_length_a   5.49778786
_cell_length_b   3.18639361
_cell_length_c   12.05744934
_cell_angle_alpha   90.00000000
_cell_angle_beta   132.95043558
_cell_angle_gamma   90.00000000
_symmetry_Int_Tables_number   1
_chemical_formula_structural   NaCl
_chemical_formula_sum   'Na4 Cl4'
_cell_volume   154.60386428
_cell_formula_units_Z   4
loop_
 _symmetry_equiv_pos_site_id
 _symmetry_equiv_pos_as_xyz
  1  'x, y, z'
loop_
 _atom_site_type_symbol
 _atom_site_label
 _atom_site_symmetry_multiplicity
 _atom_site_fract_x
 _atom_site_fract_y
 _atom_site_fract_z
 _atom_site_occupancy
  Na  Na0  1  0.81915365  0.44995491  0.95827474  1.0
  Na  Na1  1  0.54647196  0.54705879  0.22171984  1.0
  Na  Na2  1  0.20987914  0.80886276  0.83578650  1.0
  Na  Na3  1  0.10090089  0.14696079  0.33428532  1.0
  Cl  Cl4  1  0.53929342  0.00000000  0.00145364  1.0
  Cl  Cl5  1  0.51590788  0.50000000  0.65255626  1.0
  Cl  Cl6  1  0.79299292  0.00000000  0.28112858  1.0
  Cl  Cl7  1  0.13319711  0.50000000  0.88155484  1.0
