# generated using pymatgen
data_NaCl
_symmetry_space_group_name_H-M   'P 1'
_cell_length_a   5.89363241
_cell_length_b   10.43096626
_cell_length_c   6.97615678
_cell_angle_alpha   90.00000000
_cell_angle_beta   116.15404868
_cell_angle_gamma   90.00000000
_symmetry_Int_Tables_number   1
_chemical_formula_structural   NaCl
_chemical_formula_sum   'Na4 Cl4'
_cell_volume   384.95729144
_cell_formula_units_Z   4
loop_
 _symmetry_equiv_pos_site_id
 _symmetry_equiv_pos_as_xyz
  1  'x, y, z'
loop_
 _atom_site_type_symbol
 _atom_site_label
 _atom_site_symmetry_multiplicity
 _atom_site_fract_x
 _atom_site_fract_y
 _atom_site_fract_z
 _atom_site_occupancy
  Na  Na0  1  0.75976601  0.47981427  0.92808429  1.0
  Na  Na1  1  0.92939864  0.39482354  0.16818073  1.0
  Na  Na2  1  0.24034431  0.53466246  0.38020068  1.0
  Na  Na3  1  0.00955132  0.08290233  0.31793994  1.0
  Cl  Cl4  1  0.86096717  0.54724432  0.15984737  1.0
  Cl  Cl5  1  0.24309162  0.29193417  0.57276679  1.0
  Cl  Cl6  1  0.21239984  0.21349766  0.67989711  1.0
  Cl  Cl7  1  0.77689792  0.81946592  0.72137288  1.0
