# generated using pymatgen
data_NaCl
_symmetry_space_group_name_H-M   'P 1'
_cell_length_a   4.56975414
_cell_length_b   16.11285973
_cell_length_c   3.41603413
_cell_angle_alpha   90.00000000
_cell_angle_beta   90.00000000
_cell_angle_gamma   90.00000000
_symmetry_Int_Tables_number   1
_chemical_formula_structural   NaCl
_chemical_formula_sum   'Na4 Cl4'
_cell_volume   251.52876733
_cell_formula_units_Z   4
loop_
 _symmetry_equiv_pos_site_id
 _symmetry_equiv_pos_as_xyz
  1  'x, y, z'
loop_
 _atom_site_type_symbol
 _atom_site_label
 _atom_site_symmetry_multiplicity
 _atom_site_fract_x
 _atom_site_fract_y
 _atom_site_fract_z
 _atom_site_occupancy
  Na  Na0  1  0.77365089  0.27220652  0.94471705  1.0
  Na  Na1  1  0.30023071  0.49778866  0.21633761  1.0
  Na  Na2  1  0.19867575  0.93871474  0.44585135  1.0
  Na  Na3  1  0.16995961  0.38718989  0.48224963  1.0
  Cl  Cl4  1  0.48336210  0.31816608  0.24712853  1.0
  Cl  Cl5  1  0.80576995  0.13653407  0.39967960  1.0
  Cl  Cl6  1  0.32314822  0.26317610  0.53705814  1.0
  Cl  Cl7  1  0.39221649  0.68966614  0.59251150  1.0
