# generated using pymatgen
data_NaCl
_symmetry_space_group_name_H-M   'P 1'
_cell_length_a   5.05624081
_cell_length_b   16.41343908
_cell_length_c   5.42308279
_cell_angle_alpha   90.00000000
_cell_angle_beta   134.44970011
_cell_angle_gamma   90.00000000
_symmetry_Int_Tables_number   1
_chemical_formula_structural   NaCl
_chemical_formula_sum   'Na4 Cl4'
_cell_volume   321.28464227
_cell_formula_units_Z   4
loop_
 _symmetry_equiv_pos_site_id
 _symmetry_equiv_pos_as_xyz
  1  'x, y, z'
loop_
 _atom_site_type_symbol
 _atom_site_label
 _atom_site_symmetry_multiplicity
 _atom_site_fract_x
 _atom_site_fract_y
 _atom_site_fract_z
 _atom_site_occupancy
  Na  Na0  1  0.90334682  0.28637178  0.94710091  1.0
  Na  Na1  1  0.53231983  0.89182371  0.30520203  1.0
  Na  Na2  1  0.36804695  0.74368107  0.34855748  1.0
  Na  Na3  1  0.47678244  0.98961474  0.99116065  1.0
  Cl  Cl4  1  0.32792798  0.35719517  0.05716870  1.0
  Cl  Cl5  1  0.94276767  0.35037160  0.14398760  1.0
  Cl  Cl6  1  0.11868411  0.28663991  0.73197939  1.0
  Cl  Cl7  1  0.32561621  0.78732303  0.05923422  1.0
