# generated using pymatgen
data_NaCl
_symmetry_space_group_name_H-M   'P 1'
_cell_length_a   6.74246648
_cell_length_b   14.28358445
_cell_length_c   3.66840007
_cell_angle_alpha   90.00000000
_cell_angle_beta   90.00000000
_cell_angle_gamma   90.00000000
_symmetry_Int_Tables_number   1
_chemical_formula_structural   NaCl
_chemical_formula_sum   'Na4 Cl4'
_cell_volume   353.29109918
_cell_formula_units_Z   4
loop_
 _symmetry_equiv_pos_site_id
 _symmetry_equiv_pos_as_xyz
  1  'x, y, z'
loop_
 _atom_site_type_symbol
 _atom_site_label
 _atom_site_symmetry_multiplicity
 _atom_site_fract_x
 _atom_site_fract_y
 _atom_site_fract_z
 _atom_site_occupancy
  Na  Na0  1  0.99920831  0.27509624  0.93551737  1.0
  Na  Na1  1  0.92582657  0.53731808  0.64563621  1.0
  Na  Na2  1  0.32697507  0.75058524  0.84018564  1.0
  Na  Na3  1  0.04802405  0.92736673  0.35334882  1.0
  Cl  Cl4  1  0.44191517  0.46469242  0.60973878  1.0
  Cl  Cl5  1  0.35377326  0.10255872  0.02845634  1.0
  Cl  Cl6  1  0.15868847  0.32512468  0.25457733  1.0
  Cl  Cl7  1  0.76567336  0.85503215  0.39500803  1.0
