# generated using pymatgen
data_NaCl
_symmetry_space_group_name_H-M   'P 1'
_cell_length_a   3.87412511
_cell_length_b   12.59539935
_cell_length_c   7.46029101
_cell_angle_alpha   90.00000000
_cell_angle_beta   90.00000000
_cell_angle_gamma   90.00000000
_symmetry_Int_Tables_number   1
_chemical_formula_structural   NaCl
_chemical_formula_sum   'Na4 Cl4'
_cell_volume   364.03350075
_cell_formula_units_Z   4
loop_
 _symmetry_equiv_pos_site_id
 _symmetry_equiv_pos_as_xyz
  1  'x, y, z'
loop_
 _atom_site_type_symbol
 _atom_site_label
 _atom_site_symmetry_multiplicity
 _atom_site_fract_x
 _atom_site_fract_y
 _atom_site_fract_z
 _atom_site_occupancy
  Na  Na0  1  0.00000000  0.94284054  0.86546573  1.0
  Na  Na1  1  0.50000000  0.44194204  0.68382073  1.0
  Na  Na2  1  0.50000000  0.03244213  0.94366151  1.0
  Na  Na3  1  0.00000000  0.67252455  0.79808395  1.0
  Cl  Cl4  1  0.00000000  0.51116070  0.01808278  1.0
  Cl  Cl5  1  0.50000000  0.14010237  0.06756193  1.0
  Cl  Cl6  1  0.50000000  0.62750707  0.13912925  1.0
  Cl  Cl7  1  0.00000000  0.27718167  0.09611646  1.0
