# generated using pymatgen
data_NaCl
_symmetry_space_group_name_H-M   'P 1'
_cell_length_a   2.50486749
_cell_length_b   10.99125614
_cell_length_c   14.75968454
_cell_angle_alpha   90.00000000
_cell_angle_beta   90.00000000
_cell_angle_gamma   90.00000000
_symmetry_Int_Tables_number   1
_chemical_formula_structural   NaCl
_chemical_formula_sum   'Na4 Cl4'
_cell_volume   406.35832392
_cell_formula_units_Z   4
loop_
 _symmetry_equiv_pos_site_id
 _symmetry_equiv_pos_as_xyz
  1  'x, y, z'
loop_
 _atom_site_type_symbol
 _atom_site_label
 _atom_site_symmetry_multiplicity
 _atom_site_fract_x
 _atom_site_fract_y
 _atom_site_fract_z
 _atom_site_occupancy
  Na  Na0  1  0.00000000  0.80152127  0.99947735  1.0
  Na  Na1  1  0.00000000  0.57909866  0.70596249  1.0
  Na  Na2  1  0.50000000  0.57476715  0.45844440  1.0
  Na  Na3  1  0.50000000  0.09014319  0.63839947  1.0
  Cl  Cl4  1  0.00000000  0.61404175  0.05402181  1.0
  Cl  Cl5  1  0.00000000  0.08665056  0.09387599  1.0
  Cl  Cl6  1  0.50000000  0.09332904  0.11966317  1.0
  Cl  Cl7  1  0.50000000  0.83891586  0.29154470  1.0
