# generated using pymatgen
data_NaCl
_symmetry_space_group_name_H-M   'P 1'
_cell_length_a   6.45433092
_cell_length_b   16.43891812
_cell_length_c   3.27547383
_cell_angle_alpha   90.00000000
_cell_angle_beta   131.36305105
_cell_angle_gamma   90.00000000
_symmetry_Int_Tables_number   1
_chemical_formula_structural   NaCl
_chemical_formula_sum   'Na4 Cl4'
_cell_volume   260.83803629
_cell_formula_units_Z   4
loop_
 _symmetry_equiv_pos_site_id
 _symmetry_equiv_pos_as_xyz
  1  'x, y, z'
loop_
 _atom_site_type_symbol
 _atom_site_label
 _atom_site_symmetry_multiplicity
 _atom_site_fract_x
 _atom_site_fract_y
 _atom_site_fract_z
 _atom_site_occupancy
  Na  Na0  1  0.87089991  0.34098061  0.92222010  1.0
  Na  Na1  1  0.21853198  0.54591095  0.35441794  1.0
  Na  Na2  1  0.38590525  0.85697335  0.32961191  1.0
  Na  Na3  1  0.28402208  0.42337097  0.93279749  1.0
  Cl  Cl4  1  0.00000000  0.00000000  0.00000000  1.0
  Cl  Cl5  1  0.00000000  0.00000000  0.50000000  1.0
  Cl  Cl6  1  0.50000000  0.74761361  0.25000000  1.0
  Cl  Cl7  1  0.50000000  0.37653321  0.75000000  1.0
