# generated using pymatgen
data_NaCl
_symmetry_space_group_name_H-M   'P 1'
_cell_length_a   5.79373228
_cell_length_b   5.79373228
_cell_length_c   5.65748982
_cell_angle_alpha   90.00000000
_cell_angle_beta   90.00000000
_cell_angle_gamma   90.00000000
_symmetry_Int_Tables_number   1
_chemical_formula_structural   NaCl
_chemical_formula_sum   'Na4 Cl4'
_cell_volume   189.90684888
_cell_formula_units_Z   4
loop_
 _symmetry_equiv_pos_site_id
 _symmetry_equiv_pos_as_xyz
  1  'x, y, z'
loop_
 _atom_site_type_symbol
 _atom_site_label
 _atom_site_symmetry_multiplicity
 _atom_site_fract_x
 _atom_site_fract_y
 _atom_site_fract_z
 _atom_site_occupancy
  Na  Na0  1  0.78508063  0.78508063  0.87548839  1.0
  Na  Na1  1  0.67145087  0.67145087  0.18668974  1.0
  Na  Na2  1  0.48572952  0.51427048  0.07180167  1.0
  Na  Na3  1  0.40350020  0.59649980  0.52296514  1.0
  Cl  Cl4  1  0.00000000  0.50000000  0.15811460  1.0
  Cl  Cl5  1  0.50000000  0.00000000  0.17170115  1.0
  Cl  Cl6  1  0.00000000  0.50000000  0.83641089  1.0
  Cl  Cl7  1  0.50000000  0.00000000  0.65398801  1.0
