# generated using pymatgen
data_NaCl
_symmetry_space_group_name_H-M   'P 1'
_cell_length_a   4.57340463
_cell_length_b   4.57340463
_cell_length_c   12.12473797
_cell_angle_alpha   90.00000000
_cell_angle_beta   90.00000000
_cell_angle_gamma   90.00000000
_symmetry_Int_Tables_number   1
_chemical_formula_structural   NaCl
_chemical_formula_sum   'Na4 Cl4'
_cell_volume   253.60138203
_cell_formula_units_Z   4
loop_
 _symmetry_equiv_pos_site_id
 _symmetry_equiv_pos_as_xyz
  1  'x, y, z'
loop_
 _atom_site_type_symbol
 _atom_site_label
 _atom_site_symmetry_multiplicity
 _atom_site_fract_x
 _atom_site_fract_y
 _atom_site_fract_z
 _atom_site_occupancy
  Na  Na0  1  0.00000000  0.50000000  0.89914612  1.0
  Na  Na1  1  0.50000000  0.00000000  0.83939862  1.0
  Na  Na2  1  0.50000000  0.50000000  0.83451167  1.0
  Na  Na3  1  0.50000000  0.50000000  0.56995288  1.0
  Cl  Cl4  1  0.05832460  0.34868701  0.32319641  1.0
  Cl  Cl5  1  0.98065423  0.07291000  0.68723536  1.0
  Cl  Cl6  1  0.72641771  0.26777321  0.41243591  1.0
  Cl  Cl7  1  0.31205842  0.19947877  0.38953420  1.0
