# generated using pymatgen
data_NaCl
_symmetry_space_group_name_H-M   'P 1'
_cell_length_a   4.28527076
_cell_length_b   4.28527076
_cell_length_c   6.35541501
_cell_angle_alpha   90.00000000
_cell_angle_beta   90.00000000
_cell_angle_gamma   90.00000000
_symmetry_Int_Tables_number   1
_chemical_formula_structural   NaCl
_chemical_formula_sum   'Na4 Cl4'
_cell_volume   116.70795262
_cell_formula_units_Z   4
loop_
 _symmetry_equiv_pos_site_id
 _symmetry_equiv_pos_as_xyz
  1  'x, y, z'
loop_
 _atom_site_type_symbol
 _atom_site_label
 _atom_site_symmetry_multiplicity
 _atom_site_fract_x
 _atom_site_fract_y
 _atom_site_fract_z
 _atom_site_occupancy
  Na  Na0  1  0.98074577  0.67500401  0.84513987  1.0
  Na  Na1  1  0.34564563  0.14278463  0.83344282  1.0
  Na  Na2  1  0.99511008  0.06142454  0.44014671  1.0
  Na  Na3  1  0.59145363  0.59106553  0.81205611  1.0
  Cl  Cl4  1  0.28967531  0.54446008  0.11187244  1.0
  Cl  Cl5  1  0.72742824  0.32298546  0.09595018  1.0
  Cl  Cl6  1  0.47363825  0.86274841  0.64968418  1.0
  Cl  Cl7  1  0.42131994  0.51768136  0.67579917  1.0
