# generated using pymatgen
data_NaCl
_symmetry_space_group_name_H-M   'P 1'
_cell_length_a   6.01779699
_cell_length_b   9.30496814
_cell_length_c   4.66423763
_cell_angle_alpha   90.00000000
_cell_angle_beta   90.00000000
_cell_angle_gamma   90.00000000
_symmetry_Int_Tables_number   1
_chemical_formula_structural   NaCl
_chemical_formula_sum   'Na4 Cl4'
_cell_volume   261.17589500
_cell_formula_units_Z   4
loop_
 _symmetry_equiv_pos_site_id
 _symmetry_equiv_pos_as_xyz
  1  'x, y, z'
loop_
 _atom_site_type_symbol
 _atom_site_label
 _atom_site_symmetry_multiplicity
 _atom_site_fract_x
 _atom_site_fract_y
 _atom_site_fract_z
 _atom_site_occupancy
  Na  Na0  1  0.65849579  0.81301772  0.85932818  1.0
  Na  Na1  1  0.95739386  0.43882201  0.82421755  1.0
  Na  Na2  1  0.19905151  0.92415557  0.89616265  1.0
  Na  Na3  1  0.67302500  0.37146097  0.32420057  1.0
  Cl  Cl4  1  0.42976950  0.61780893  0.21832618  1.0
  Cl  Cl5  1  0.84857028  0.40720165  0.16555970  1.0
  Cl  Cl6  1  0.49877511  0.70311217  0.93569770  1.0
  Cl  Cl7  1  0.78209819  0.54381397  0.75649191  1.0
