# generated using pymatgen
data_NaCl
_symmetry_space_group_name_H-M   'P 1'
_cell_length_a   5.90196305
_cell_length_b   5.90196305
_cell_length_c   5.27816907
_cell_angle_alpha   90.00000000
_cell_angle_beta   90.00000000
_cell_angle_gamma   90.00000000
_symmetry_Int_Tables_number   1
_chemical_formula_structural   NaCl
_chemical_formula_sum   'Na4 Cl4'
_cell_volume   183.85534912
_cell_formula_units_Z   4
loop_
 _symmetry_equiv_pos_site_id
 _symmetry_equiv_pos_as_xyz
  1  'x, y, z'
loop_
 _atom_site_type_symbol
 _atom_site_label
 _atom_site_symmetry_multiplicity
 _atom_site_fract_x
 _atom_site_fract_y
 _atom_site_fract_z
 _atom_site_occupancy
  Na  Na0  1  0.88893675  0.16269338  0.86593595  1.0
  Na  Na1  1  0.62411162  0.50253894  0.26281150  1.0
  Na  Na2  1  0.91384296  0.56367177  0.04699518  1.0
  Na  Na3  1  0.07608197  0.80787785  0.29195102  1.0
  Cl  Cl4  1  0.40360800  0.38084305  0.71312984  1.0
  Cl  Cl5  1  0.87482092  0.94949631  0.04247352  1.0
  Cl  Cl6  1  0.56714915  0.76412573  0.62866366  1.0
  Cl  Cl7  1  0.59830764  0.83142059  0.25042968  1.0
