# generated using pymatgen
data_NaCl
_symmetry_space_group_name_H-M   'P 1'
_cell_length_a   5.21151566
_cell_length_b   7.85896039
_cell_length_c   9.71757409
_cell_angle_alpha   90.00000000
_cell_angle_beta   90.00000000
_cell_angle_gamma   90.00000000
_symmetry_Int_Tables_number   1
_chemical_formula_structural   NaCl
_chemical_formula_sum   'Na4 Cl4'
_cell_volume   398.00360657
_cell_formula_units_Z   4
loop_
 _symmetry_equiv_pos_site_id
 _symmetry_equiv_pos_as_xyz
  1  'x, y, z'
loop_
 _atom_site_type_symbol
 _atom_site_label
 _atom_site_symmetry_multiplicity
 _atom_site_fract_x
 _atom_site_fract_y
 _atom_site_fract_z
 _atom_site_occupancy
  Na  Na0  1  0.87284520  0.29459812  0.92585471  1.0
  Na  Na1  1  0.38421061  0.67491358  0.18454597  1.0
  Na  Na2  1  0.12958363  0.88186129  0.80205089  1.0
  Na  Na3  1  0.02822623  0.55757832  0.35678053  1.0
  Cl  Cl4  1  0.25000000  0.39820062  0.00058197  1.0
  Cl  Cl5  1  0.75000000  0.16633635  0.62539833  1.0
  Cl  Cl6  1  0.25000000  0.42722488  0.22751879  1.0
  Cl  Cl7  1  0.75000000  0.28443095  0.71764852  1.0
