# generated using pymatgen
data_NaCl
_symmetry_space_group_name_H-M   'P 1'
_cell_length_a   3.62031603
_cell_length_b   16.00466154
_cell_length_c   2.00025234
_cell_angle_alpha   90.00000000
_cell_angle_beta   90.00000000
_cell_angle_gamma   90.00000000
_symmetry_Int_Tables_number   1
_chemical_formula_structural   NaCl
_chemical_formula_sum   'Na4 Cl4'
_cell_volume   115.89848652
_cell_formula_units_Z   4
loop_
 _symmetry_equiv_pos_site_id
 _symmetry_equiv_pos_as_xyz
  1  'x, y, z'
loop_
 _atom_site_type_symbol
 _atom_site_label
 _atom_site_symmetry_multiplicity
 _atom_site_fract_x
 _atom_site_fract_y
 _atom_site_fract_z
 _atom_site_occupancy
  Na  Na0  1  0.69544602  0.99911482  0.86500046  1.0
  Na  Na1  1  0.99291363  0.40151865  0.60056422  1.0
  Na  Na2  1  0.23280152  0.64694751  0.53617037  1.0
  Na  Na3  1  0.81583717  0.27518351  0.58732703  1.0
  Cl  Cl4  1  0.62038094  0.38206404  0.34855408  1.0
  Cl  Cl5  1  0.23334265  0.10240490  0.17570680  1.0
  Cl  Cl6  1  0.06149676  0.01972469  0.89360562  1.0
  Cl  Cl7  1  0.67440082  0.79813545  0.38648648  1.0
