# generated using pymatgen
data_NaCl
_symmetry_space_group_name_H-M   'P 1'
_cell_length_a   3.13455948
_cell_length_b   4.69714731
_cell_length_c   8.16113947
_cell_angle_alpha   90.00000000
_cell_angle_beta   90.00000000
_cell_angle_gamma   90.00000000
_symmetry_Int_Tables_number   1
_chemical_formula_structural   NaCl
_chemical_formula_sum   'Na4 Cl4'
_cell_volume   120.16043603
_cell_formula_units_Z   4
loop_
 _symmetry_equiv_pos_site_id
 _symmetry_equiv_pos_as_xyz
  1  'x, y, z'
loop_
 _atom_site_type_symbol
 _atom_site_label
 _atom_site_symmetry_multiplicity
 _atom_site_fract_x
 _atom_site_fract_y
 _atom_site_fract_z
 _atom_site_occupancy
  Na  Na0  1  0.62737719  0.71106613  0.83352183  1.0
  Na  Na1  1  0.80926945  0.10912977  0.89644842  1.0
  Na  Na2  1  0.60371898  0.41161499  0.26068125  1.0
  Na  Na3  1  0.21020746  0.85891635  0.60180087  1.0
  Cl  Cl4  1  0.08518226  0.69287713  0.12770270  1.0
  Cl  Cl5  1  0.89470028  0.10270762  0.09341858  1.0
  Cl  Cl6  1  0.30404182  0.20296994  0.09910144  1.0
  Cl  Cl7  1  0.94091394  0.38096236  0.02027762  1.0
