# generated using pymatgen
data_NaCl
_symmetry_space_group_name_H-M   'P 1'
_cell_length_a   3.87111422
_cell_length_b   15.81435198
_cell_length_c   6.50489333
_cell_angle_alpha   90.00000000
_cell_angle_beta   90.00000000
_cell_angle_gamma   90.00000000
_symmetry_Int_Tables_number   1
_chemical_formula_structural   NaCl
_chemical_formula_sum   'Na4 Cl4'
_cell_volume   398.22412396
_cell_formula_units_Z   4
loop_
 _symmetry_equiv_pos_site_id
 _symmetry_equiv_pos_as_xyz
  1  'x, y, z'
loop_
 _atom_site_type_symbol
 _atom_site_label
 _atom_site_symmetry_multiplicity
 _atom_site_fract_x
 _atom_site_fract_y
 _atom_site_fract_z
 _atom_site_occupancy
  Na  Na0  1  0.77838902  0.25979581  0.89366752  1.0
  Na  Na1  1  0.56349858  0.55442393  0.61407718  1.0
  Na  Na2  1  0.13192571  0.87749445  0.46997564  1.0
  Na  Na3  1  0.29120771  0.19531766  0.49757567  1.0
  Cl  Cl4  1  0.62473331  0.37193594  0.34908485  1.0
  Cl  Cl5  1  0.90433943  0.19870102  0.10194735  1.0
  Cl  Cl6  1  0.44531545  0.42054529  0.46893045  1.0
  Cl  Cl7  1  0.33494838  0.65180243  0.06421532  1.0
