# generated using pymatgen
data_NaCl
_symmetry_space_group_name_H-M   'P 1'
_cell_length_a   5.22858805
_cell_length_b   15.80316070
_cell_length_c   4.29478671
_cell_angle_alpha   90.00000000
_cell_angle_beta   42.81189985
_cell_angle_gamma   90.00000000
_symmetry_Int_Tables_number   1
_chemical_formula_structural   NaCl
_chemical_formula_sum   'Na4 Cl4'
_cell_volume   241.16779563
_cell_formula_units_Z   4
loop_
 _symmetry_equiv_pos_site_id
 _symmetry_equiv_pos_as_xyz
  1  'x, y, z'
loop_
 _atom_site_type_symbol
 _atom_site_label
 _atom_site_symmetry_multiplicity
 _atom_site_fract_x
 _atom_site_fract_y
 _atom_site_fract_z
 _atom_site_occupancy
  Na  Na0  1  0.78246584  0.19864018  0.90905202  1.0
  Na  Na1  1  0.34641758  0.35614461  0.57010669  1.0
  Na  Na2  1  0.72801586  0.15803472  0.58878380  1.0
  Na  Na3  1  0.54274203  0.62006394  0.84752184  1.0
  Cl  Cl4  1  0.41098422  0.30399879  0.09197280  1.0
  Cl  Cl5  1  0.12495594  0.03252530  0.09842138  1.0
  Cl  Cl6  1  0.79895100  0.49721011  0.52573506  1.0
  Cl  Cl7  1  0.40418611  0.10136924  0.98114689  1.0
