# generated using pymatgen
data_NaCl
_symmetry_space_group_name_H-M   'P 1'
_cell_length_a   5.03439424
_cell_length_b   14.42270697
_cell_length_c   2.05438653
_cell_angle_alpha   90.00000000
_cell_angle_beta   90.00000000
_cell_angle_gamma   90.00000000
_symmetry_Int_Tables_number   1
_chemical_formula_structural   NaCl
_chemical_formula_sum   'Na4 Cl4'
_cell_volume   149.16816959
_cell_formula_units_Z   4
loop_
 _symmetry_equiv_pos_site_id
 _symmetry_equiv_pos_as_xyz
  1  'x, y, z'
loop_
 _atom_site_type_symbol
 _atom_site_label
 _atom_site_symmetry_multiplicity
 _atom_site_fract_x
 _atom_site_fract_y
 _atom_site_fract_z
 _atom_site_occupancy
  Na  Na0  1  0.92476718  0.32170935  0.89286256  1.0
  Na  Na1  1  0.32939453  0.53966647  0.61495320  1.0
  Na  Na2  1  0.19508764  0.98228872  0.02427145  1.0
  Na  Na3  1  0.93348288  0.45867219  0.05195611  1.0
  Cl  Cl4  1  0.50721957  0.33580875  0.05304120  1.0
  Cl  Cl5  1  0.89248523  0.10604455  0.01940390  1.0
  Cl  Cl6  1  0.37071552  0.34903158  0.48875428  1.0
  Cl  Cl7  1  0.31369565  0.65750738  0.07665859  1.0
