# generated using pymatgen
data_NaCl
_symmetry_space_group_name_H-M   'P 1'
_cell_length_a   6.61426771
_cell_length_b   6.61426771
_cell_length_c   6.68052862
_cell_angle_alpha   90.00000000
_cell_angle_beta   90.00000000
_cell_angle_gamma   120.00000000
_symmetry_Int_Tables_number   1
_chemical_formula_structural   NaCl
_chemical_formula_sum   'Na4 Cl4'
_cell_volume   253.10749070
_cell_formula_units_Z   4
loop_
 _symmetry_equiv_pos_site_id
 _symmetry_equiv_pos_as_xyz
  1  'x, y, z'
loop_
 _atom_site_type_symbol
 _atom_site_label
 _atom_site_symmetry_multiplicity
 _atom_site_fract_x
 _atom_site_fract_y
 _atom_site_fract_z
 _atom_site_occupancy
  Na  Na0  1  0.00000000  0.00000000  0.91430746  1.0
  Na  Na1  1  0.35734485  0.65372497  0.05325461  1.0
  Na  Na2  1  0.93007775  0.46016893  0.82169408  1.0
  Na  Na3  1  0.86611027  0.47487318  0.10545894  1.0
  Cl  Cl4  1  0.00000000  0.00000000  0.17286098  1.0
  Cl  Cl5  1  0.00000000  0.00000000  0.51246104  1.0
  Cl  Cl6  1  0.33333333  0.66666667  0.41378040  1.0
  Cl  Cl7  1  0.33333333  0.66666667  0.68005692  1.0
