# generated using pymatgen
data_NaCl
_symmetry_space_group_name_H-M   'P 1'
_cell_length_a   4.73187319
_cell_length_b   14.15701923
_cell_length_c   2.92771749
_cell_angle_alpha   90.00000000
_cell_angle_beta   90.00000000
_cell_angle_gamma   90.00000000
_symmetry_Int_Tables_number   1
_chemical_formula_structural   NaCl
_chemical_formula_sum   'Na4 Cl4'
_cell_volume   196.12551029
_cell_formula_units_Z   4
loop_
 _symmetry_equiv_pos_site_id
 _symmetry_equiv_pos_as_xyz
  1  'x, y, z'
loop_
 _atom_site_type_symbol
 _atom_site_label
 _atom_site_symmetry_multiplicity
 _atom_site_fract_x
 _atom_site_fract_y
 _atom_site_fract_z
 _atom_site_occupancy
  Na  Na0  1  0.96542452  0.35972647  0.90575423  1.0
  Na  Na1  1  0.26373238  0.49549329  0.69544582  1.0
  Na  Na2  1  0.62267529  0.81213291  0.33097281  1.0
  Na  Na3  1  0.68614065  0.56791546  0.55047592  1.0
  Cl  Cl4  1  0.33710547  0.49421674  0.06087441  1.0
  Cl  Cl5  1  0.92763703  0.05558354  0.95976168  1.0
  Cl  Cl6  1  0.60518085  0.28581837  0.88353354  1.0
  Cl  Cl7  1  0.71440873  0.48134333  0.51922077  1.0
