# generated using pymatgen
data_NaCl
_symmetry_space_group_name_H-M   'P 1'
_cell_length_a   6.85407898
_cell_length_b   6.85407898
_cell_length_c   7.71174512
_cell_angle_alpha   90.00000000
_cell_angle_beta   90.00000000
_cell_angle_gamma   90.00000000
_symmetry_Int_Tables_number   1
_chemical_formula_structural   NaCl
_chemical_formula_sum   'Na4 Cl4'
_cell_volume   362.28543664
_cell_formula_units_Z   4
loop_
 _symmetry_equiv_pos_site_id
 _symmetry_equiv_pos_as_xyz
  1  'x, y, z'
loop_
 _atom_site_type_symbol
 _atom_site_label
 _atom_site_symmetry_multiplicity
 _atom_site_fract_x
 _atom_site_fract_y
 _atom_site_fract_z
 _atom_site_occupancy
  Na  Na0  1  0.86721756  0.12900663  0.93700960  1.0
  Na  Na1  1  0.63332199  0.57173293  0.52458087  1.0
  Na  Na2  1  0.94455144  0.72934445  0.16217904  1.0
  Na  Na3  1  0.00422458  0.48970986  0.74254687  1.0
  Cl  Cl4  1  0.46758451  0.50055623  0.30312490  1.0
  Cl  Cl5  1  0.94275729  0.00097241  0.00056692  1.0
  Cl  Cl6  1  0.51244805  0.78474675  0.41299647  1.0
  Cl  Cl7  1  0.74328437  0.73419893  0.74464528  1.0
