# generated using pymatgen
data_NaCl
_symmetry_space_group_name_H-M   'P 1'
_cell_length_a   6.41819838
_cell_length_b   17.94991041
_cell_length_c   3.38029613
_cell_angle_alpha   90.00000000
_cell_angle_beta   90.00000000
_cell_angle_gamma   90.00000000
_symmetry_Int_Tables_number   1
_chemical_formula_structural   NaCl
_chemical_formula_sum   'Na4 Cl4'
_cell_volume   389.43068637
_cell_formula_units_Z   4
loop_
 _symmetry_equiv_pos_site_id
 _symmetry_equiv_pos_as_xyz
  1  'x, y, z'
loop_
 _atom_site_type_symbol
 _atom_site_label
 _atom_site_symmetry_multiplicity
 _atom_site_fract_x
 _atom_site_fract_y
 _atom_site_fract_z
 _atom_site_occupancy
  Na  Na0  1  0.80352849  0.25000000  0.89845542  1.0
  Na  Na1  1  0.08184526  0.25000000  0.17804269  1.0
  Na  Na2  1  0.30351929  0.75000000  0.40770657  1.0
  Na  Na3  1  0.80618562  0.75000000  0.62725933  1.0
  Cl  Cl4  1  0.25000000  0.45531383  0.50199487  1.0
  Cl  Cl5  1  0.25000000  0.61345587  0.60299157  1.0
  Cl  Cl6  1  0.75000000  0.98174586  0.55708472  1.0
  Cl  Cl7  1  0.75000000  0.39634062  0.45390568  1.0
