# generated using pymatgen
data_NaCl
_symmetry_space_group_name_H-M   'P 1'
_cell_length_a   8.19213749
_cell_length_b   16.03856054
_cell_length_c   2.83843177
_cell_angle_alpha   90.00000000
_cell_angle_beta   90.00000000
_cell_angle_gamma   90.00000000
_symmetry_Int_Tables_number   1
_chemical_formula_structural   NaCl
_chemical_formula_sum   'Na4 Cl4'
_cell_volume   372.94181448
_cell_formula_units_Z   4
loop_
 _symmetry_equiv_pos_site_id
 _symmetry_equiv_pos_as_xyz
  1  'x, y, z'
loop_
 _atom_site_type_symbol
 _atom_site_label
 _atom_site_symmetry_multiplicity
 _atom_site_fract_x
 _atom_site_fract_y
 _atom_site_fract_z
 _atom_site_occupancy
  Na  Na0  1  0.93436822  0.23132740  0.25000000  1.0
  Na  Na1  1  0.52012592  0.50296590  0.75000000  1.0
  Na  Na2  1  0.29008551  0.71178450  0.25000000  1.0
  Na  Na3  1  0.56489248  0.01427851  0.75000000  1.0
  Cl  Cl4  1  0.50013998  0.45913907  0.25000000  1.0
  Cl  Cl5  1  0.89325311  0.13472500  0.75000000  1.0
  Cl  Cl6  1  0.17277513  0.24695982  0.25000000  1.0
  Cl  Cl7  1  0.35295061  0.83585632  0.75000000  1.0
