# generated using pymatgen
data_NaCl
_symmetry_space_group_name_H-M   'P 1'
_cell_length_a   9.25394854
_cell_length_b   20.68735383
_cell_length_c   2.03908616
_cell_angle_alpha   90.00000000
_cell_angle_beta   90.00000000
_cell_angle_gamma   90.00000000
_symmetry_Int_Tables_number   1
_chemical_formula_structural   NaCl
_chemical_formula_sum   'Na4 Cl4'
_cell_volume   390.36205859
_cell_formula_units_Z   4
loop_
 _symmetry_equiv_pos_site_id
 _symmetry_equiv_pos_as_xyz
  1  'x, y, z'
loop_
 _atom_site_type_symbol
 _atom_site_label
 _atom_site_symmetry_multiplicity
 _atom_site_fract_x
 _atom_site_fract_y
 _atom_site_fract_z
 _atom_site_occupancy
  Na  Na0  1  0.88742682  0.13131523  0.91701521  1.0
  Na  Na1  1  0.63752271  0.67065382  0.21945440  1.0
  Na  Na2  1  0.10817604  0.49994111  0.61862368  1.0
  Na  Na3  1  0.45265523  0.66629938  0.15601124  1.0
  Cl  Cl4  1  0.55931314  0.39430161  0.56426406  1.0
  Cl  Cl5  1  0.81831177  0.99952336  0.97227774  1.0
  Cl  Cl6  1  0.08918579  0.98479897  0.37384991  1.0
  Cl  Cl7  1  0.36577190  0.18980431  0.99800704  1.0
