# generated using pymatgen
data_NaCl
_symmetry_space_group_name_H-M   'P 1'
_cell_length_a   8.26071551
_cell_length_b   8.26071551
_cell_length_c   2.01289760
_cell_angle_alpha   90.00000000
_cell_angle_beta   90.00000000
_cell_angle_gamma   90.00000000
_symmetry_Int_Tables_number   1
_chemical_formula_structural   NaCl
_chemical_formula_sum   'Na4 Cl4'
_cell_volume   137.35896623
_cell_formula_units_Z   4
loop_
 _symmetry_equiv_pos_site_id
 _symmetry_equiv_pos_as_xyz
  1  'x, y, z'
loop_
 _atom_site_type_symbol
 _atom_site_label
 _atom_site_symmetry_multiplicity
 _atom_site_fract_x
 _atom_site_fract_y
 _atom_site_fract_z
 _atom_site_occupancy
  Na  Na0  1  0.92351392  0.50000000  0.86219523  1.0
  Na  Na1  1  0.69261354  0.50000000  0.80264023  1.0
  Na  Na2  1  0.50000000  0.58041866  0.31764330  1.0
  Na  Na3  1  0.50000000  0.81883674  0.04228439  1.0
  Cl  Cl4  1  0.41669671  0.00000000  0.58008499  1.0
  Cl  Cl5  1  0.73974099  0.00000000  0.44853043  1.0
  Cl  Cl6  1  0.00000000  0.64899229  0.87786952  1.0
  Cl  Cl7  1  0.00000000  0.94365923  0.87900914  1.0
