# generated using pymatgen
data_NaCl
_symmetry_space_group_name_H-M   'P 1'
_cell_length_a   5.71500615
_cell_length_b   18.90702322
_cell_length_c   3.14953223
_cell_angle_alpha   90.00000000
_cell_angle_beta   41.14695664
_cell_angle_gamma   90.00000000
_symmetry_Int_Tables_number   1
_chemical_formula_structural   NaCl
_chemical_formula_sum   'Na4 Cl4'
_cell_volume   223.92724151
_cell_formula_units_Z   4
loop_
 _symmetry_equiv_pos_site_id
 _symmetry_equiv_pos_as_xyz
  1  'x, y, z'
loop_
 _atom_site_type_symbol
 _atom_site_label
 _atom_site_symmetry_multiplicity
 _atom_site_fract_x
 _atom_site_fract_y
 _atom_site_fract_z
 _atom_site_occupancy
  Na  Na0  1  0.72256676  0.30821783  0.92254947  1.0
  Na  Na1  1  0.64525095  0.56094201  0.83967122  1.0
  Na  Na2  1  0.68907049  0.01664224  0.34450701  1.0
  Na  Na3  1  0.25767773  0.64903354  0.56449715  1.0
  Cl  Cl4  1  0.51415044  0.25455178  0.11481493  1.0
  Cl  Cl5  1  0.24074632  0.32403517  0.14434069  1.0
  Cl  Cl6  1  0.77747402  0.63719786  0.63779390  1.0
  Cl  Cl7  1  0.45829262  0.48991723  0.44650606  1.0
