# generated using pymatgen
data_NaCl
_symmetry_space_group_name_H-M   'P 1'
_cell_length_a   4.11123495
_cell_length_b   4.11123495
_cell_length_c   5.85038790
_cell_angle_alpha   90.00000000
_cell_angle_beta   90.00000000
_cell_angle_gamma   90.00000000
_symmetry_Int_Tables_number   1
_chemical_formula_structural   NaCl
_chemical_formula_sum   'Na4 Cl4'
_cell_volume   98.88473535
_cell_formula_units_Z   4
loop_
 _symmetry_equiv_pos_site_id
 _symmetry_equiv_pos_as_xyz
  1  'x, y, z'
loop_
 _atom_site_type_symbol
 _atom_site_label
 _atom_site_symmetry_multiplicity
 _atom_site_fract_x
 _atom_site_fract_y
 _atom_site_fract_z
 _atom_site_occupancy
  Na  Na0  1  0.76677272  0.21617605  0.98246165  1.0
  Na  Na1  1  0.55207388  0.60654806  0.60405626  1.0
  Na  Na2  1  0.79153908  0.74668976  0.31121012  1.0
  Na  Na3  1  0.17472684  0.21973227  0.40264836  1.0
  Cl  Cl4  1  0.62948191  0.50630365  0.18782325  1.0
  Cl  Cl5  1  0.96259788  0.04016000  0.81245189  1.0
  Cl  Cl6  1  0.48754404  0.73808339  0.23617922  1.0
  Cl  Cl7  1  0.65640269  0.67399946  0.08005303  1.0
