# generated using pymatgen
data_NaCl
_symmetry_space_group_name_H-M   'P 1'
_cell_length_a   4.99280262
_cell_length_b   4.99280262
_cell_length_c   9.79406553
_cell_angle_alpha   90.00000000
_cell_angle_beta   90.00000000
_cell_angle_gamma   90.00000000
_symmetry_Int_Tables_number   1
_chemical_formula_structural   NaCl
_chemical_formula_sum   'Na4 Cl4'
_cell_volume   244.14722949
_cell_formula_units_Z   4
loop_
 _symmetry_equiv_pos_site_id
 _symmetry_equiv_pos_as_xyz
  1  'x, y, z'
loop_
 _atom_site_type_symbol
 _atom_site_label
 _atom_site_symmetry_multiplicity
 _atom_site_fract_x
 _atom_site_fract_y
 _atom_site_fract_z
 _atom_site_occupancy
  Na  Na0  1  0.97257535  0.97257535  0.37500000  1.0
  Na  Na1  1  0.26863622  0.26863622  0.87500000  1.0
  Na  Na2  1  0.42894803  0.57105197  0.62500000  1.0
  Na  Na3  1  0.16755613  0.83244387  0.12500000  1.0
  Cl  Cl4  1  0.50000000  0.48809465  0.00000000  1.0
  Cl  Cl5  1  0.50000000  0.02531751  0.50000000  1.0
  Cl  Cl6  1  0.40717431  0.50000000  0.25000000  1.0
  Cl  Cl7  1  0.44979400  0.50000000  0.75000000  1.0
