# generated using pymatgen
data_NaCl
_symmetry_space_group_name_H-M   'P 1'
_cell_length_a   7.45999607
_cell_length_b   17.91541189
_cell_length_c   2.52490990
_cell_angle_alpha   90.00000000
_cell_angle_beta   90.00000000
_cell_angle_gamma   90.00000000
_symmetry_Int_Tables_number   1
_chemical_formula_structural   NaCl
_chemical_formula_sum   'Na4 Cl4'
_cell_volume   337.45143652
_cell_formula_units_Z   4
loop_
 _symmetry_equiv_pos_site_id
 _symmetry_equiv_pos_as_xyz
  1  'x, y, z'
loop_
 _atom_site_type_symbol
 _atom_site_label
 _atom_site_symmetry_multiplicity
 _atom_site_fract_x
 _atom_site_fract_y
 _atom_site_fract_z
 _atom_site_occupancy
  Na  Na0  1  0.62374611  0.14091125  0.96549253  1.0
  Na  Na1  1  0.59346090  0.51331451  0.72603545  1.0
  Na  Na2  1  0.22067418  0.30299595  0.50657976  1.0
  Na  Na3  1  0.21570798  0.77226211  0.86463281  1.0
  Cl  Cl4  1  0.54408534  0.18601819  0.42539499  1.0
  Cl  Cl5  1  0.76764915  0.05232579  0.05176226  1.0
  Cl  Cl6  1  0.39290919  0.95939612  0.46722358  1.0
  Cl  Cl7  1  0.26881127  0.17466579  0.02963683  1.0
