# generated using pymatgen
data_NaCl
_symmetry_space_group_name_H-M   'P 1'
_cell_length_a   7.11051786
_cell_length_b   7.11051786
_cell_length_c   2.55485987
_cell_angle_alpha   90.00000000
_cell_angle_beta   90.00000000
_cell_angle_gamma   90.00000000
_symmetry_Int_Tables_number   1
_chemical_formula_structural   NaCl
_chemical_formula_sum   'Na4 Cl4'
_cell_volume   129.17234623
_cell_formula_units_Z   4
loop_
 _symmetry_equiv_pos_site_id
 _symmetry_equiv_pos_as_xyz
  1  'x, y, z'
loop_
 _atom_site_type_symbol
 _atom_site_label
 _atom_site_symmetry_multiplicity
 _atom_site_fract_x
 _atom_site_fract_y
 _atom_site_fract_z
 _atom_site_occupancy
  Na  Na0  1  0.90561061  0.31151024  0.75075805  1.0
  Na  Na1  1  0.65254840  0.55518862  0.96259666  1.0
  Na  Na2  1  0.94918912  0.55513100  0.13630726  1.0
  Na  Na3  1  0.00727474  0.83460514  0.95130727  1.0
  Cl  Cl4  1  0.47224896  0.37224306  0.60880904  1.0
  Cl  Cl5  1  0.73293519  0.95959963  0.41240372  1.0
  Cl  Cl6  1  0.50562733  0.60751914  0.88493179  1.0
  Cl  Cl7  1  0.61052475  0.90998128  0.95426847  1.0
