# generated using pymatgen
data_NaCl
_symmetry_space_group_name_H-M   'P 1'
_cell_length_a   5.42126182
_cell_length_b   14.35080214
_cell_length_c   11.62819300
_cell_angle_alpha   90.00000000
_cell_angle_beta   156.99836176
_cell_angle_gamma   90.00000000
_symmetry_Int_Tables_number   1
_chemical_formula_structural   NaCl
_chemical_formula_sum   'Na4 Cl4'
_cell_volume   353.50540204
_cell_formula_units_Z   4
loop_
 _symmetry_equiv_pos_site_id
 _symmetry_equiv_pos_as_xyz
  1  'x, y, z'
loop_
 _atom_site_type_symbol
 _atom_site_label
 _atom_site_symmetry_multiplicity
 _atom_site_fract_x
 _atom_site_fract_y
 _atom_site_fract_z
 _atom_site_occupancy
  Na  Na0  1  0.86004607  0.13306901  0.84597781  1.0
  Na  Na1  1  0.85827961  0.54606558  0.60140880  1.0
  Na  Na2  1  0.62097271  0.14036315  0.21266814  1.0
  Na  Na3  1  0.33242277  0.36189054  0.03416650  1.0
  Cl  Cl4  1  0.35587189  0.28914165  0.73152075  1.0
  Cl  Cl5  1  0.11962637  0.05994497  0.18662021  1.0
  Cl  Cl6  1  0.85584452  0.60420344  0.49055334  1.0
  Cl  Cl7  1  0.18189512  0.38190769  0.11046969  1.0
