# generated using pymatgen
data_NaCl
_symmetry_space_group_name_H-M   'P 1'
_cell_length_a   4.40014271
_cell_length_b   9.65705744
_cell_length_c   7.03542309
_cell_angle_alpha   90.00000000
_cell_angle_beta   52.23094436
_cell_angle_gamma   90.00000000
_symmetry_Int_Tables_number   1
_chemical_formula_structural   NaCl
_chemical_formula_sum   'Na4 Cl4'
_cell_volume   236.31752712
_cell_formula_units_Z   4
loop_
 _symmetry_equiv_pos_site_id
 _symmetry_equiv_pos_as_xyz
  1  'x, y, z'
loop_
 _atom_site_type_symbol
 _atom_site_label
 _atom_site_symmetry_multiplicity
 _atom_site_fract_x
 _atom_site_fract_y
 _atom_site_fract_z
 _atom_site_occupancy
  Na  Na0  1  0.86667620  0.60874771  0.79858700  1.0
  Na  Na1  1  0.37329269  0.49976315  0.52324844  1.0
  Na  Na2  1  0.36128504  0.22580011  0.08934888  1.0
  Na  Na3  1  0.66092233  0.85451421  0.99845144  1.0
  Cl  Cl4  1  0.23510672  0.78810211  0.14661467  1.0
  Cl  Cl5  1  0.75944575  0.04860055  0.59298113  1.0
  Cl  Cl6  1  0.78431222  0.40662638  0.34641435  1.0
  Cl  Cl7  1  0.35396511  0.87398749  0.00087243  1.0
