# generated using pymatgen
data_NaCl
_symmetry_space_group_name_H-M   'P 1'
_cell_length_a   4.55157507
_cell_length_b   16.46176537
_cell_length_c   10.09020801
_cell_angle_alpha   90.00000000
_cell_angle_beta   32.63624025
_cell_angle_gamma   90.00000000
_symmetry_Int_Tables_number   1
_chemical_formula_structural   NaCl
_chemical_formula_sum   'Na4 Cl4'
_cell_volume   407.72891011
_cell_formula_units_Z   4
loop_
 _symmetry_equiv_pos_site_id
 _symmetry_equiv_pos_as_xyz
  1  'x, y, z'
loop_
 _atom_site_type_symbol
 _atom_site_label
 _atom_site_symmetry_multiplicity
 _atom_site_fract_x
 _atom_site_fract_y
 _atom_site_fract_z
 _atom_site_occupancy
  Na  Na0  1  0.71573124  0.12048484  0.94921996  1.0
  Na  Na1  1  0.34410056  0.73721968  0.60279099  1.0
  Na  Na2  1  0.21841309  0.53350788  0.39864982  1.0
  Na  Na3  1  0.92481130  0.99568381  0.61200833  1.0
  Cl  Cl4  1  0.42517595  0.13772313  0.28007156  1.0
  Cl  Cl5  1  0.19173622  0.55183728  0.99014119  1.0
  Cl  Cl6  1  0.31892398  0.04623404  0.24665504  1.0
  Cl  Cl7  1  0.64947522  0.75505605  0.03001322  1.0
