# generated using pymatgen
data_NaCl
_symmetry_space_group_name_H-M   'P 1'
_cell_length_a   6.04616560
_cell_length_b   15.94867475
_cell_length_c   2.03105904
_cell_angle_alpha   90.00000000
_cell_angle_beta   90.00000000
_cell_angle_gamma   90.00000000
_symmetry_Int_Tables_number   1
_chemical_formula_structural   NaCl
_chemical_formula_sum   'Na4 Cl4'
_cell_volume   195.85162859
_cell_formula_units_Z   4
loop_
 _symmetry_equiv_pos_site_id
 _symmetry_equiv_pos_as_xyz
  1  'x, y, z'
loop_
 _atom_site_type_symbol
 _atom_site_label
 _atom_site_symmetry_multiplicity
 _atom_site_fract_x
 _atom_site_fract_y
 _atom_site_fract_z
 _atom_site_occupancy
  Na  Na0  1  0.66738523  0.21522048  0.25000000  1.0
  Na  Na1  1  0.54966303  0.49945844  0.75000000  1.0
  Na  Na2  1  0.35585954  0.69366602  0.25000000  1.0
  Na  Na3  1  0.22824709  0.57209052  0.75000000  1.0
  Cl  Cl4  1  0.47828586  0.46177304  0.25000000  1.0
  Cl  Cl5  1  0.88831302  0.13399304  0.75000000  1.0
  Cl  Cl6  1  0.15327365  0.02186783  0.25000000  1.0
  Cl  Cl7  1  0.17630509  0.84515823  0.75000000  1.0
