# generated using pymatgen
data_NaCl
_symmetry_space_group_name_H-M   'P 1'
_cell_length_a   3.76132098
_cell_length_b   16.61183540
_cell_length_c   2.88996240
_cell_angle_alpha   90.00000000
_cell_angle_beta   90.00000000
_cell_angle_gamma   90.00000000
_symmetry_Int_Tables_number   1
_chemical_formula_structural   NaCl
_chemical_formula_sum   'Na4 Cl4'
_cell_volume   180.57191673
_cell_formula_units_Z   4
loop_
 _symmetry_equiv_pos_site_id
 _symmetry_equiv_pos_as_xyz
  1  'x, y, z'
loop_
 _atom_site_type_symbol
 _atom_site_label
 _atom_site_symmetry_multiplicity
 _atom_site_fract_x
 _atom_site_fract_y
 _atom_site_fract_z
 _atom_site_occupancy
  Na  Na0  1  0.82245530  0.18930246  0.41838459  1.0
  Na  Na1  1  0.57085387  0.55425523  0.16524149  1.0
  Na  Na2  1  0.28474228  0.93772549  0.58306423  1.0
  Na  Na3  1  0.13324410  0.19184772  0.04193107  1.0
  Cl  Cl4  1  0.50109587  0.32452909  0.28626073  1.0
  Cl  Cl5  1  0.76578175  0.07188614  0.15964966  1.0
  Cl  Cl6  1  0.24649679  0.36789118  0.67028949  1.0
  Cl  Cl7  1  0.37084706  0.67044487  0.96951377  1.0
