# generated using pymatgen
data_NaCl
_symmetry_space_group_name_H-M   'P 1'
_cell_length_a   6.28994902
_cell_length_b   17.51049672
_cell_length_c   3.47623001
_cell_angle_alpha   90.00000000
_cell_angle_beta   90.00000000
_cell_angle_gamma   90.00000000
_symmetry_Int_Tables_number   1
_chemical_formula_structural   NaCl
_chemical_formula_sum   'Na4 Cl4'
_cell_volume   382.87243106
_cell_formula_units_Z   4
loop_
 _symmetry_equiv_pos_site_id
 _symmetry_equiv_pos_as_xyz
  1  'x, y, z'
loop_
 _atom_site_type_symbol
 _atom_site_label
 _atom_site_symmetry_multiplicity
 _atom_site_fract_x
 _atom_site_fract_y
 _atom_site_fract_z
 _atom_site_occupancy
  Na  Na0  1  0.76348187  0.16448015  0.90402480  1.0
  Na  Na1  1  0.58088096  0.50760703  0.13286517  1.0
  Na  Na2  1  0.18912991  0.37647205  0.58681223  1.0
  Na  Na3  1  0.29123218  0.76816485  0.32001431  1.0
  Cl  Cl4  1  0.51953243  0.41620085  0.42565726  1.0
  Cl  Cl5  1  0.67927369  0.09292303  0.64760067  1.0
  Cl  Cl6  1  0.38514819  0.95740106  0.35862899  1.0
  Cl  Cl7  1  0.31400677  0.17272406  0.66236830  1.0
