# generated using pymatgen
data_NaCl
_symmetry_space_group_name_H-M   'P 1'
_cell_length_a   4.30675522
_cell_length_b   18.50983363
_cell_length_c   3.06550845
_cell_angle_alpha   90.00000000
_cell_angle_beta   146.76609354
_cell_angle_gamma   90.00000000
_symmetry_Int_Tables_number   1
_chemical_formula_structural   NaCl
_chemical_formula_sum   'Na4 Cl4'
_cell_volume   133.93126991
_cell_formula_units_Z   4
loop_
 _symmetry_equiv_pos_site_id
 _symmetry_equiv_pos_as_xyz
  1  'x, y, z'
loop_
 _atom_site_type_symbol
 _atom_site_label
 _atom_site_symmetry_multiplicity
 _atom_site_fract_x
 _atom_site_fract_y
 _atom_site_fract_z
 _atom_site_occupancy
  Na  Na0  1  0.62479230  0.41010510  0.85624708  1.0
  Na  Na1  1  0.34659245  0.98928678  0.78158041  1.0
  Na  Na2  1  0.33503807  0.80678346  0.28952410  1.0
  Na  Na3  1  0.55684939  0.98756862  0.43194080  1.0
  Cl  Cl4  1  0.37590092  0.30417660  0.01757396  1.0
  Cl  Cl5  1  0.96486384  0.48305758  0.41669578  1.0
  Cl  Cl6  1  0.28601482  0.17907253  0.43692154  1.0
  Cl  Cl7  1  0.21780251  0.71757609  0.57774698  1.0
