# generated using pymatgen
data_NaCl
_symmetry_space_group_name_H-M   'P 1'
_cell_length_a   6.60567248
_cell_length_b   6.60567248
_cell_length_c   6.36381322
_cell_angle_alpha   90.00000000
_cell_angle_beta   90.00000000
_cell_angle_gamma   120.00000000
_symmetry_Int_Tables_number   1
_chemical_formula_structural   NaCl
_chemical_formula_sum   'Na4 Cl4'
_cell_volume   240.48175346
_cell_formula_units_Z   4
loop_
 _symmetry_equiv_pos_site_id
 _symmetry_equiv_pos_as_xyz
  1  'x, y, z'
loop_
 _atom_site_type_symbol
 _atom_site_label
 _atom_site_symmetry_multiplicity
 _atom_site_fract_x
 _atom_site_fract_y
 _atom_site_fract_z
 _atom_site_occupancy
  Na  Na0  1  0.66666667  0.33333333  0.80775885  1.0
  Na  Na1  1  0.49249174  0.53067474  0.20611550  1.0
  Na  Na2  1  0.88889438  0.59356661  0.44216102  1.0
  Na  Na3  1  0.73045500  0.55928735  0.21594021  1.0
  Cl  Cl4  1  0.66666667  0.33333333  0.62248552  1.0
  Cl  Cl5  1  0.24947408  0.75478570  0.64520432  1.0
  Cl  Cl6  1  0.48852302  0.29617404  0.34321480  1.0
  Cl  Cl7  1  0.42887985  0.71394257  0.55893904  1.0
