# generated using pymatgen
data_NaCl
_symmetry_space_group_name_H-M   'P 1'
_cell_length_a   6.95992906
_cell_length_b   6.95992906
_cell_length_c   7.74795262
_cell_angle_alpha   90.00000000
_cell_angle_beta   90.00000000
_cell_angle_gamma   90.00000000
_symmetry_Int_Tables_number   1
_chemical_formula_structural   NaCl
_chemical_formula_sum   'Na4 Cl4'
_cell_volume   375.31557069
_cell_formula_units_Z   4
loop_
 _symmetry_equiv_pos_site_id
 _symmetry_equiv_pos_as_xyz
  1  'x, y, z'
loop_
 _atom_site_type_symbol
 _atom_site_label
 _atom_site_symmetry_multiplicity
 _atom_site_fract_x
 _atom_site_fract_y
 _atom_site_fract_z
 _atom_site_occupancy
  Na  Na0  1  0.87345840  0.24943424  0.38747537  1.0
  Na  Na1  1  0.05617185  0.54728454  0.67905123  1.0
  Na  Na2  1  0.75376237  0.77208817  0.64627943  1.0
  Na  Na3  1  0.45821897  0.47094446  0.39163435  1.0
  Cl  Cl4  1  0.44915561  0.23785684  0.53696460  1.0
  Cl  Cl5  1  0.96501144  0.13423277  0.08941031  1.0
  Cl  Cl6  1  0.32788231  0.66572260  0.76767208  1.0
  Cl  Cl7  1  0.66864446  0.72675179  0.52917165  1.0
