# generated using pymatgen
data_NaCl
_symmetry_space_group_name_H-M   'P 1'
_cell_length_a   4.41446248
_cell_length_b   17.65511164
_cell_length_c   2.98584143
_cell_angle_alpha   90.00000000
_cell_angle_beta   90.00000000
_cell_angle_gamma   90.00000000
_symmetry_Int_Tables_number   1
_chemical_formula_structural   NaCl
_chemical_formula_sum   'Na4 Cl4'
_cell_volume   232.70999555
_cell_formula_units_Z   4
loop_
 _symmetry_equiv_pos_site_id
 _symmetry_equiv_pos_as_xyz
  1  'x, y, z'
loop_
 _atom_site_type_symbol
 _atom_site_label
 _atom_site_symmetry_multiplicity
 _atom_site_fract_x
 _atom_site_fract_y
 _atom_site_fract_z
 _atom_site_occupancy
  Na  Na0  1  0.66013366  0.28872979  0.93444799  1.0
  Na  Na1  1  0.05359198  0.44526371  0.68435675  1.0
  Na  Na2  1  0.25714739  0.56551845  0.91833594  1.0
  Na  Na3  1  0.93124231  0.04949965  0.55450734  1.0
  Cl  Cl4  1  0.54326077  0.36086244  0.42705257  1.0
  Cl  Cl5  1  0.19841671  0.11041332  0.21650184  1.0
  Cl  Cl6  1  0.10367093  0.07110549  0.95500066  1.0
  Cl  Cl7  1  0.85198639  0.75786130  0.46283936  1.0
