# generated using pymatgen
data_NaCl
_symmetry_space_group_name_H-M   'P 1'
_cell_length_a   5.99313224
_cell_length_b   14.55635301
_cell_length_c   2.76076803
_cell_angle_alpha   90.00000000
_cell_angle_beta   90.00000000
_cell_angle_gamma   90.00000000
_symmetry_Int_Tables_number   1
_chemical_formula_structural   NaCl
_chemical_formula_sum   'Na4 Cl4'
_cell_volume   240.84429143
_cell_formula_units_Z   4
loop_
 _symmetry_equiv_pos_site_id
 _symmetry_equiv_pos_as_xyz
  1  'x, y, z'
loop_
 _atom_site_type_symbol
 _atom_site_label
 _atom_site_symmetry_multiplicity
 _atom_site_fract_x
 _atom_site_fract_y
 _atom_site_fract_z
 _atom_site_occupancy
  Na  Na0  1  0.00000000  0.33684898  0.98233332  1.0
  Na  Na1  1  0.00000000  0.43961249  0.20184250  1.0
  Na  Na2  1  0.50000000  0.63448170  0.21869658  1.0
  Na  Na3  1  0.50000000  0.88600177  0.98518425  1.0
  Cl  Cl4  1  0.35531479  0.00000000  0.13141411  1.0
  Cl  Cl5  1  0.98395009  0.00000000  0.49889866  1.0
  Cl  Cl6  1  0.96451823  0.50000000  0.89761694  1.0
  Cl  Cl7  1  0.25148942  0.50000000  0.05435848  1.0
