# generated using pymatgen
data_NaCl
_symmetry_space_group_name_H-M   'P 1'
_cell_length_a   4.43471697
_cell_length_b   15.04995379
_cell_length_c   3.48594484
_cell_angle_alpha   90.00000000
_cell_angle_beta   90.00000000
_cell_angle_gamma   90.00000000
_symmetry_Int_Tables_number   1
_chemical_formula_structural   NaCl
_chemical_formula_sum   'Na4 Cl4'
_cell_volume   232.65992564
_cell_formula_units_Z   4
loop_
 _symmetry_equiv_pos_site_id
 _symmetry_equiv_pos_as_xyz
  1  'x, y, z'
loop_
 _atom_site_type_symbol
 _atom_site_label
 _atom_site_symmetry_multiplicity
 _atom_site_fract_x
 _atom_site_fract_y
 _atom_site_fract_z
 _atom_site_occupancy
  Na  Na0  1  0.81268930  0.17175621  0.82093579  1.0
  Na  Na1  1  0.54183809  0.61145056  0.16960728  1.0
  Na  Na2  1  0.19934718  0.89069828  0.48166586  1.0
  Na  Na3  1  0.20455973  0.20136141  0.31081613  1.0
  Cl  Cl4  1  0.00000000  0.00000000  0.29012932  1.0
  Cl  Cl5  1  0.50000000  0.00000000  0.61518672  1.0
  Cl  Cl6  1  0.25000000  0.51815290  0.48678145  1.0
  Cl  Cl7  1  0.75000000  0.40101420  0.56435828  1.0
