# generated using pymatgen
data_NaCl
_symmetry_space_group_name_H-M   'P 1'
_cell_length_a   5.20510094
_cell_length_b   17.68757907
_cell_length_c   2.90835119
_cell_angle_alpha   90.00000000
_cell_angle_beta   90.00000000
_cell_angle_gamma   90.00000000
_symmetry_Int_Tables_number   1
_chemical_formula_structural   NaCl
_chemical_formula_sum   'Na4 Cl4'
_cell_volume   267.75919749
_cell_formula_units_Z   4
loop_
 _symmetry_equiv_pos_site_id
 _symmetry_equiv_pos_as_xyz
  1  'x, y, z'
loop_
 _atom_site_type_symbol
 _atom_site_label
 _atom_site_symmetry_multiplicity
 _atom_site_fract_x
 _atom_site_fract_y
 _atom_site_fract_z
 _atom_site_occupancy
  Na  Na0  1  0.96430015  0.28103122  0.13634807  1.0
  Na  Na1  1  0.57603508  0.60038508  0.87384363  1.0
  Na  Na2  1  0.01595771  0.51836609  0.20029339  1.0
  Na  Na3  1  0.75998663  0.43682697  0.53833978  1.0
  Cl  Cl4  1  0.46188653  0.29139151  0.63245445  1.0
  Cl  Cl5  1  0.78179652  0.00070694  0.46796243  1.0
  Cl  Cl6  1  0.96306183  0.04505425  0.48288004  1.0
  Cl  Cl7  1  0.67680176  0.71196295  0.51118559  1.0
