# generated using pymatgen
data_NaCl
_symmetry_space_group_name_H-M   'P 1'
_cell_length_a   9.16002952
_cell_length_b   16.89745247
_cell_length_c   2.55551165
_cell_angle_alpha   90.00000000
_cell_angle_beta   90.00000000
_cell_angle_gamma   90.00000000
_symmetry_Int_Tables_number   1
_chemical_formula_structural   NaCl
_chemical_formula_sum   'Na4 Cl4'
_cell_volume   395.54506637
_cell_formula_units_Z   4
loop_
 _symmetry_equiv_pos_site_id
 _symmetry_equiv_pos_as_xyz
  1  'x, y, z'
loop_
 _atom_site_type_symbol
 _atom_site_label
 _atom_site_symmetry_multiplicity
 _atom_site_fract_x
 _atom_site_fract_y
 _atom_site_fract_z
 _atom_site_occupancy
  Na  Na0  1  0.89829884  0.23050338  0.83372017  1.0
  Na  Na1  1  0.23035894  0.54564853  0.28713870  1.0
  Na  Na2  1  0.36786777  0.62702289  0.81518526  1.0
  Na  Na3  1  0.70705194  0.39937205  0.53376899  1.0
  Cl  Cl4  1  0.39904426  0.40409730  0.58685981  1.0
  Cl  Cl5  1  0.21676549  0.93326348  0.94209255  1.0
  Cl  Cl6  1  0.33034793  0.01375910  0.16542545  1.0
  Cl  Cl7  1  0.61855723  0.83013871  0.53707297  1.0
