# generated using pymatgen
data_NaCl
_symmetry_space_group_name_H-M   'P 1'
_cell_length_a   8.18201317
_cell_length_b   8.18201317
_cell_length_c   4.60205280
_cell_angle_alpha   90.00000000
_cell_angle_beta   90.00000000
_cell_angle_gamma   90.00000000
_symmetry_Int_Tables_number   1
_chemical_formula_structural   NaCl
_chemical_formula_sum   'Na4 Cl4'
_cell_volume   308.08598716
_cell_formula_units_Z   4
loop_
 _symmetry_equiv_pos_site_id
 _symmetry_equiv_pos_as_xyz
  1  'x, y, z'
loop_
 _atom_site_type_symbol
 _atom_site_label
 _atom_site_symmetry_multiplicity
 _atom_site_fract_x
 _atom_site_fract_y
 _atom_site_fract_z
 _atom_site_occupancy
  Na  Na0  1  0.67950098  0.76345653  0.85254329  1.0
  Na  Na1  1  0.46901418  0.50782405  0.84151483  1.0
  Na  Na2  1  0.96804546  0.79483821  0.84223995  1.0
  Na  Na3  1  0.38216350  0.54938718  0.11510309  1.0
  Cl  Cl4  1  0.73579156  0.95705047  0.49365335  1.0
  Cl  Cl5  1  0.26273704  0.07390969  0.14741532  1.0
  Cl  Cl6  1  0.35951066  0.66435847  0.54914832  1.0
  Cl  Cl7  1  0.41509059  0.82135144  0.74921617  1.0
