# generated using pymatgen
data_NaCl
_symmetry_space_group_name_H-M   'P 1'
_cell_length_a   4.92222976
_cell_length_b   13.02850605
_cell_length_c   2.47331056
_cell_angle_alpha   90.00000000
_cell_angle_beta   90.00000000
_cell_angle_gamma   90.00000000
_symmetry_Int_Tables_number   1
_chemical_formula_structural   NaCl
_chemical_formula_sum   'Na4 Cl4'
_cell_volume   158.61167541
_cell_formula_units_Z   4
loop_
 _symmetry_equiv_pos_site_id
 _symmetry_equiv_pos_as_xyz
  1  'x, y, z'
loop_
 _atom_site_type_symbol
 _atom_site_label
 _atom_site_symmetry_multiplicity
 _atom_site_fract_x
 _atom_site_fract_y
 _atom_site_fract_z
 _atom_site_occupancy
  Na  Na0  1  0.74110902  0.70173123  0.96799544  1.0
  Na  Na1  1  0.32564739  0.54139805  0.53329117  1.0
  Na  Na2  1  0.18011299  0.43616004  0.66415406  1.0
  Na  Na3  1  0.98194958  0.60393433  0.00122518  1.0
  Cl  Cl4  1  0.53686430  0.52784883  0.23099490  1.0
  Cl  Cl5  1  0.82640528  0.51820312  0.10083036  1.0
  Cl  Cl6  1  0.24298010  0.00734511  0.50284986  1.0
  Cl  Cl7  1  0.34183566  0.19223569  0.05523713  1.0
