# generated using pymatgen
data_NaCl
_symmetry_space_group_name_H-M   'P 1'
_cell_length_a   6.88135963
_cell_length_b   6.88135963
_cell_length_c   3.33413976
_cell_angle_alpha   90.00000000
_cell_angle_beta   90.00000000
_cell_angle_gamma   90.00000000
_symmetry_Int_Tables_number   1
_chemical_formula_structural   NaCl
_chemical_formula_sum   'Na4 Cl4'
_cell_volume   157.88188800
_cell_formula_units_Z   4
loop_
 _symmetry_equiv_pos_site_id
 _symmetry_equiv_pos_as_xyz
  1  'x, y, z'
loop_
 _atom_site_type_symbol
 _atom_site_label
 _atom_site_symmetry_multiplicity
 _atom_site_fract_x
 _atom_site_fract_y
 _atom_site_fract_z
 _atom_site_occupancy
  Na  Na0  1  0.80153494  0.32463976  0.86863006  1.0
  Na  Na1  1  0.29745195  0.46652041  0.62684047  1.0
  Na  Na2  1  0.92974266  0.55698218  0.36901119  1.0
  Na  Na3  1  0.56491277  0.60535369  0.68183239  1.0
  Cl  Cl4  1  0.42092416  0.40946922  0.12426477  1.0
  Cl  Cl5  1  0.97083278  0.01687722  0.03770791  1.0
  Cl  Cl6  1  0.24653393  0.63530089  0.19593911  1.0
  Cl  Cl7  1  0.66908598  0.72438012  0.75919288  1.0
