# generated using pymatgen
data_NaCl
_symmetry_space_group_name_H-M   'P 1'
_cell_length_a   4.90449200
_cell_length_b   14.28514693
_cell_length_c   11.01304866
_cell_angle_alpha   90.00000000
_cell_angle_beta   149.29478636
_cell_angle_gamma   90.00000000
_symmetry_Int_Tables_number   1
_chemical_formula_structural   NaCl
_chemical_formula_sum   'Na4 Cl4'
_cell_volume   393.98991621
_cell_formula_units_Z   4
loop_
 _symmetry_equiv_pos_site_id
 _symmetry_equiv_pos_as_xyz
  1  'x, y, z'
loop_
 _atom_site_type_symbol
 _atom_site_label
 _atom_site_symmetry_multiplicity
 _atom_site_fract_x
 _atom_site_fract_y
 _atom_site_fract_z
 _atom_site_occupancy
  Na  Na0  1  0.97053179  0.26137375  0.90087508  1.0
  Na  Na1  1  0.01876667  0.96120166  0.41616710  1.0
  Na  Na2  1  0.31100857  0.94640517  0.24340069  1.0
  Na  Na3  1  0.51263602  0.91263277  0.86874456  1.0
  Cl  Cl4  1  0.47091584  0.48742741  0.55312347  1.0
  Cl  Cl5  1  0.87376396  0.36208889  0.93685726  1.0
  Cl  Cl6  1  0.01910497  0.58329988  0.63910946  1.0
  Cl  Cl7  1  0.49051464  0.99699018  0.01437240  1.0
