# generated using pymatgen
data_NaCl
_symmetry_space_group_name_H-M   'P 1'
_cell_length_a   7.13513036
_cell_length_b   16.70632437
_cell_length_c   8.03193488
_cell_angle_alpha   90.00000000
_cell_angle_beta   24.03626361
_cell_angle_gamma   90.00000000
_symmetry_Int_Tables_number   1
_chemical_formula_structural   NaCl
_chemical_formula_sum   'Na4 Cl4'
_cell_volume   389.97175297
_cell_formula_units_Z   4
loop_
 _symmetry_equiv_pos_site_id
 _symmetry_equiv_pos_as_xyz
  1  'x, y, z'
loop_
 _atom_site_type_symbol
 _atom_site_label
 _atom_site_symmetry_multiplicity
 _atom_site_fract_x
 _atom_site_fract_y
 _atom_site_fract_z
 _atom_site_occupancy
  Na  Na0  1  0.00183384  0.09514239  0.79908761  1.0
  Na  Na1  1  0.43950568  0.42271312  0.92502388  1.0
  Na  Na2  1  0.31082476  0.51446539  0.38955860  1.0
  Na  Na3  1  0.96374221  0.57186437  0.52658790  1.0
  Cl  Cl4  1  0.42075832  0.22929890  0.23588318  1.0
  Cl  Cl5  1  0.82542722  0.98376917  0.57676107  1.0
  Cl  Cl6  1  0.31653419  0.03943765  0.57130260  1.0
  Cl  Cl7  1  0.26685362  0.23551405  0.53679997  1.0
