# generated using pymatgen
data_NaCl
_symmetry_space_group_name_H-M   'P 1'
_cell_length_a   6.32333154
_cell_length_b   11.25433163
_cell_length_c   4.25250359
_cell_angle_alpha   90.00000000
_cell_angle_beta   132.36504702
_cell_angle_gamma   90.00000000
_symmetry_Int_Tables_number   1
_chemical_formula_structural   NaCl
_chemical_formula_sum   'Na4 Cl4'
_cell_volume   223.60234836
_cell_formula_units_Z   4
loop_
 _symmetry_equiv_pos_site_id
 _symmetry_equiv_pos_as_xyz
  1  'x, y, z'
loop_
 _atom_site_type_symbol
 _atom_site_label
 _atom_site_symmetry_multiplicity
 _atom_site_fract_x
 _atom_site_fract_y
 _atom_site_fract_z
 _atom_site_occupancy
  Na  Na0  1  0.90010598  0.45864599  0.87091629  1.0
  Na  Na1  1  0.29314239  0.59494821  0.83121217  1.0
  Na  Na2  1  0.95429358  0.61437859  0.66373959  1.0
  Na  Na3  1  0.23869361  0.03571049  0.40094085  1.0
  Cl  Cl4  1  0.00000000  0.48043900  0.50000000  1.0
  Cl  Cl5  1  0.50000000  0.47373255  0.50000000  1.0
  Cl  Cl6  1  0.00000000  0.73247127  0.50000000  1.0
  Cl  Cl7  1  0.50000000  0.94376443  0.50000000  1.0
