# generated using pymatgen
data_NaCl
_symmetry_space_group_name_H-M   'P 1'
_cell_length_a   6.86608763
_cell_length_b   15.66130182
_cell_length_c   3.35442919
_cell_angle_alpha   90.00000000
_cell_angle_beta   90.00000000
_cell_angle_gamma   90.00000000
_symmetry_Int_Tables_number   1
_chemical_formula_structural   NaCl
_chemical_formula_sum   'Na4 Cl4'
_cell_volume   360.70804592
_cell_formula_units_Z   4
loop_
 _symmetry_equiv_pos_site_id
 _symmetry_equiv_pos_as_xyz
  1  'x, y, z'
loop_
 _atom_site_type_symbol
 _atom_site_label
 _atom_site_symmetry_multiplicity
 _atom_site_fract_x
 _atom_site_fract_y
 _atom_site_fract_z
 _atom_site_occupancy
  Na  Na0  1  0.93688374  0.11743076  0.57033216  1.0
  Na  Na1  1  0.74296419  0.20175027  0.74264991  1.0
  Na  Na2  1  0.44828273  0.50070070  0.24787512  1.0
  Na  Na3  1  0.86269662  0.95539511  0.97716814  1.0
  Cl  Cl4  1  0.08630141  0.65474372  0.67696457  1.0
  Cl  Cl5  1  0.28577198  0.12327714  0.41517039  1.0
  Cl  Cl6  1  0.09185228  0.00554120  0.08112914  1.0
  Cl  Cl7  1  0.43403040  0.06296999  0.16738280  1.0
