# generated using pymatgen
data_NaCl
_symmetry_space_group_name_H-M   'P 1'
_cell_length_a   3.15909148
_cell_length_b   13.71863649
_cell_length_c   7.94803834
_cell_angle_alpha   90.00000000
_cell_angle_beta   149.29242211
_cell_angle_gamma   90.00000000
_symmetry_Int_Tables_number   1
_chemical_formula_structural   NaCl
_chemical_formula_sum   'Na4 Cl4'
_cell_volume   175.89847927
_cell_formula_units_Z   4
loop_
 _symmetry_equiv_pos_site_id
 _symmetry_equiv_pos_as_xyz
  1  'x, y, z'
loop_
 _atom_site_type_symbol
 _atom_site_label
 _atom_site_symmetry_multiplicity
 _atom_site_fract_x
 _atom_site_fract_y
 _atom_site_fract_z
 _atom_site_occupancy
  Na  Na0  1  0.90813489  0.42012596  0.62551423  1.0
  Na  Na1  1  0.55195386  0.35521270  0.71268053  1.0
  Na  Na2  1  0.14242422  0.00067409  0.68879591  1.0
  Na  Na3  1  0.43362409  0.50657220  0.44753878  1.0
  Cl  Cl4  1  0.50608186  0.61491382  0.61554032  1.0
  Cl  Cl5  1  0.07273120  0.92152769  0.28273563  1.0
  Cl  Cl6  1  0.75136362  0.22783418  0.13010366  1.0
  Cl  Cl7  1  0.65861996  0.21126971  0.26531685  1.0
