# generated using pymatgen
data_NaCl
_symmetry_space_group_name_H-M   'P 1'
_cell_length_a   6.48753283
_cell_length_b   6.48753283
_cell_length_c   6.48753283
_cell_angle_alpha   90.00000000
_cell_angle_beta   90.00000000
_cell_angle_gamma   90.00000000
_symmetry_Int_Tables_number   1
_chemical_formula_structural   NaCl
_chemical_formula_sum   'Na4 Cl4'
_cell_volume   273.04781516
_cell_formula_units_Z   4
loop_
 _symmetry_equiv_pos_site_id
 _symmetry_equiv_pos_as_xyz
  1  'x, y, z'
loop_
 _atom_site_type_symbol
 _atom_site_label
 _atom_site_symmetry_multiplicity
 _atom_site_fract_x
 _atom_site_fract_y
 _atom_site_fract_z
 _atom_site_occupancy
  Na  Na0  1  0.00066659  0.00066659  0.00066659  1.0
  Na  Na1  1  0.63363509  0.13363509  0.36636491  1.0
  Na  Na2  1  0.06075138  0.43924862  0.56075138  1.0
  Na  Na3  1  0.73073604  0.26926396  0.76926396  1.0
  Cl  Cl4  1  0.37220214  0.37220214  0.37220214  1.0
  Cl  Cl5  1  0.89966401  0.39966401  0.10033599  1.0
  Cl  Cl6  1  0.39835796  0.10164204  0.89835796  1.0
  Cl  Cl7  1  0.62858986  0.37141014  0.87141014  1.0
