# generated using pymatgen
data_NaCl
_symmetry_space_group_name_H-M   'P 1'
_cell_length_a   5.13399740
_cell_length_b   5.13399740
_cell_length_c   9.32434322
_cell_angle_alpha   90.00000000
_cell_angle_beta   90.00000000
_cell_angle_gamma   90.00000000
_symmetry_Int_Tables_number   1
_chemical_formula_structural   NaCl
_chemical_formula_sum   'Na4 Cl4'
_cell_volume   245.77037939
_cell_formula_units_Z   4
loop_
 _symmetry_equiv_pos_site_id
 _symmetry_equiv_pos_as_xyz
  1  'x, y, z'
loop_
 _atom_site_type_symbol
 _atom_site_label
 _atom_site_symmetry_multiplicity
 _atom_site_fract_x
 _atom_site_fract_y
 _atom_site_fract_z
 _atom_site_occupancy
  Na  Na0  1  0.53625573  0.35341914  0.40550990  1.0
  Na  Na1  1  0.34816045  0.18306840  0.99835514  1.0
  Na  Na2  1  0.82374949  0.18107405  0.59852707  1.0
  Na  Na3  1  0.37110251  0.63158783  0.82209460  1.0
  Cl  Cl4  1  0.20262048  0.75481380  0.07862665  1.0
  Cl  Cl5  1  0.71999781  0.16705160  0.13778127  1.0
  Cl  Cl6  1  0.73977142  0.94556551  0.31523912  1.0
  Cl  Cl7  1  0.62296999  0.36673208  0.66045344  1.0
