# generated using pymatgen
data_NaCl
_symmetry_space_group_name_H-M   'P 1'
_cell_length_a   3.70873709
_cell_length_b   2.73965481
_cell_length_c   27.62255710
_cell_angle_alpha   90.00000000
_cell_angle_beta   90.00000000
_cell_angle_gamma   90.00000000
_symmetry_Int_Tables_number   1
_chemical_formula_structural   NaCl
_chemical_formula_sum   'Na4 Cl4'
_cell_volume   280.66339466
_cell_formula_units_Z   4
loop_
 _symmetry_equiv_pos_site_id
 _symmetry_equiv_pos_as_xyz
  1  'x, y, z'
loop_
 _atom_site_type_symbol
 _atom_site_label
 _atom_site_symmetry_multiplicity
 _atom_site_fract_x
 _atom_site_fract_y
 _atom_site_fract_z
 _atom_site_occupancy
  Na  Na0  1  0.03469709  0.10044501  0.41549246  1.0
  Na  Na1  1  0.00038117  0.09079758  0.24050790  1.0
  Na  Na2  1  0.44343597  0.49205334  0.99906134  1.0
  Na  Na3  1  0.47338348  0.16432278  0.79894756  1.0
  Cl  Cl4  1  0.00000000  0.00000000  0.78429235  1.0
  Cl  Cl5  1  0.50000000  0.00000000  0.73322257  1.0
  Cl  Cl6  1  0.00000000  0.50000000  0.63936897  1.0
  Cl  Cl7  1  0.50000000  0.50000000  0.54639766  1.0
