# generated using pymatgen
data_NaCl
_symmetry_space_group_name_H-M   'P 1'
_cell_length_a   3.68481485
_cell_length_b   3.68481485
_cell_length_c   27.01969956
_cell_angle_alpha   90.00000000
_cell_angle_beta   90.00000000
_cell_angle_gamma   90.00000000
_symmetry_Int_Tables_number   1
_chemical_formula_structural   NaCl
_chemical_formula_sum   'Na4 Cl4'
_cell_volume   366.86971080
_cell_formula_units_Z   4
loop_
 _symmetry_equiv_pos_site_id
 _symmetry_equiv_pos_as_xyz
  1  'x, y, z'
loop_
 _atom_site_type_symbol
 _atom_site_label
 _atom_site_symmetry_multiplicity
 _atom_site_fract_x
 _atom_site_fract_y
 _atom_site_fract_z
 _atom_site_occupancy
  Na  Na0  1  0.03502249  0.19114957  0.58447582  1.0
  Na  Na1  1  0.05050139  0.31913925  0.95339015  1.0
  Na  Na2  1  0.44017503  0.22296484  0.41960955  1.0
  Na  Na3  1  0.16754293  0.73200486  0.16236873  1.0
  Cl  Cl4  1  0.49365579  0.55295413  0.66358999  1.0
  Cl  Cl5  1  0.48919067  0.54214829  0.44847470  1.0
  Cl  Cl6  1  0.44540565  0.58921263  0.88832081  1.0
  Cl  Cl7  1  0.39042072  0.73635242  0.34778190  1.0
