# generated using pymatgen
data_NaCl
_symmetry_space_group_name_H-M   'P 1'
_cell_length_a   4.67078711
_cell_length_b   4.67078711
_cell_length_c   4.67078711
_cell_angle_alpha   90.00000000
_cell_angle_beta   90.00000000
_cell_angle_gamma   90.00000000
_symmetry_Int_Tables_number   1
_chemical_formula_structural   NaCl
_chemical_formula_sum   'Na4 Cl4'
_cell_volume   101.89906969
_cell_formula_units_Z   4
loop_
 _symmetry_equiv_pos_site_id
 _symmetry_equiv_pos_as_xyz
  1  'x, y, z'
loop_
 _atom_site_type_symbol
 _atom_site_label
 _atom_site_symmetry_multiplicity
 _atom_site_fract_x
 _atom_site_fract_y
 _atom_site_fract_z
 _atom_site_occupancy
  Na  Na0  1  0.00213423  0.00213423  0.00213423  1.0
  Na  Na1  1  0.50380076  0.00380076  0.49619924  1.0
  Na  Na2  1  0.06655122  0.43344878  0.56655122  1.0
  Na  Na3  1  0.52234853  0.47765147  0.97765147  1.0
  Cl  Cl4  1  0.47400659  0.47400659  0.47400659  1.0
  Cl  Cl5  1  0.00543564  0.50543564  0.99456436  1.0
  Cl  Cl6  1  0.25417161  0.24582839  0.75417161  1.0
  Cl  Cl7  1  0.77281730  0.22718270  0.72718270  1.0
