# generated using pymatgen
data_NaCl
_symmetry_space_group_name_H-M   'P 1'
_cell_length_a   6.72254726
_cell_length_b   6.72254726
_cell_length_c   6.72254726
_cell_angle_alpha   90.00000000
_cell_angle_beta   90.00000000
_cell_angle_gamma   90.00000000
_symmetry_Int_Tables_number   1
_chemical_formula_structural   NaCl
_chemical_formula_sum   'Na4 Cl4'
_cell_volume   303.80966938
_cell_formula_units_Z   4
loop_
 _symmetry_equiv_pos_site_id
 _symmetry_equiv_pos_as_xyz
  1  'x, y, z'
loop_
 _atom_site_type_symbol
 _atom_site_label
 _atom_site_symmetry_multiplicity
 _atom_site_fract_x
 _atom_site_fract_y
 _atom_site_fract_z
 _atom_site_occupancy
  Na  Na0  1  0.13000942  0.13000942  0.13000942  1.0
  Na  Na1  1  0.78132181  0.28132181  0.21867819  1.0
  Na  Na2  1  0.70380049  0.79619951  0.20380049  1.0
  Na  Na3  1  0.84145006  0.15854994  0.65854994  1.0
  Cl  Cl4  1  0.40453964  0.40453964  0.40453964  1.0
  Cl  Cl5  1  0.29239457  0.79239457  0.70760543  1.0
  Cl  Cl6  1  0.23462302  0.26537698  0.73462302  1.0
  Cl  Cl7  1  0.66388454  0.33611546  0.83611546  1.0
