# generated using pymatgen
data_NaCl
_symmetry_space_group_name_H-M   'P 1'
_cell_length_a   5.96429936
_cell_length_b   5.96429936
_cell_length_c   8.69388942
_cell_angle_alpha   90.00000000
_cell_angle_beta   90.00000000
_cell_angle_gamma   90.00000000
_symmetry_Int_Tables_number   1
_chemical_formula_structural   NaCl
_chemical_formula_sum   'Na4 Cl4'
_cell_volume   309.26657080
_cell_formula_units_Z   4
loop_
 _symmetry_equiv_pos_site_id
 _symmetry_equiv_pos_as_xyz
  1  'x, y, z'
loop_
 _atom_site_type_symbol
 _atom_site_label
 _atom_site_symmetry_multiplicity
 _atom_site_fract_x
 _atom_site_fract_y
 _atom_site_fract_z
 _atom_site_occupancy
  Na  Na0  1  0.77713332  0.77713332  0.83928200  1.0
  Na  Na1  1  0.83725943  0.83725943  0.02113199  1.0
  Na  Na2  1  0.73620757  0.26379243  0.12769694  1.0
  Na  Na3  1  0.93862188  0.06137812  0.75112636  1.0
  Cl  Cl4  1  0.00000000  0.00000000  0.53344941  1.0
  Cl  Cl5  1  0.00000000  0.00000000  0.35810149  1.0
  Cl  Cl6  1  0.00000000  0.00000000  0.12916180  1.0
  Cl  Cl7  1  0.00000000  0.00000000  0.96011610  1.0
