# generated using pymatgen
data_NaCl
_symmetry_space_group_name_H-M   'P 1'
_cell_length_a   7.77022241
_cell_length_b   4.70828404
_cell_length_c   11.98634189
_cell_angle_alpha   90.00000000
_cell_angle_beta   63.91511462
_cell_angle_gamma   90.00000000
_symmetry_Int_Tables_number   1
_chemical_formula_structural   NaCl
_chemical_formula_sum   'Na4 Cl4'
_cell_volume   393.84791047
_cell_formula_units_Z   4
loop_
 _symmetry_equiv_pos_site_id
 _symmetry_equiv_pos_as_xyz
  1  'x, y, z'
loop_
 _atom_site_type_symbol
 _atom_site_label
 _atom_site_symmetry_multiplicity
 _atom_site_fract_x
 _atom_site_fract_y
 _atom_site_fract_z
 _atom_site_occupancy
  Na  Na0  1  0.88880223  0.56598470  0.93055296  1.0
  Na  Na1  1  0.75915227  0.90315956  0.72322262  1.0
  Na  Na2  1  0.42809470  0.27830513  0.40725639  1.0
  Na  Na3  1  0.03192828  0.80485387  0.73485742  1.0
  Cl  Cl4  1  0.63458291  0.65212736  0.72229952  1.0
  Cl  Cl5  1  0.87260323  0.21915527  0.78380288  1.0
  Cl  Cl6  1  0.98121536  0.90664302  0.48205752  1.0
  Cl  Cl7  1  0.42439114  0.12540510  0.51037209  1.0
