# generated using pymatgen
data_NaCl
_symmetry_space_group_name_H-M   'P 1'
_cell_length_a   5.45401572
_cell_length_b   5.45401572
_cell_length_c   11.21171122
_cell_angle_alpha   90.00000000
_cell_angle_beta   90.00000000
_cell_angle_gamma   90.00000000
_symmetry_Int_Tables_number   1
_chemical_formula_structural   NaCl
_chemical_formula_sum   'Na4 Cl4'
_cell_volume   333.50678503
_cell_formula_units_Z   4
loop_
 _symmetry_equiv_pos_site_id
 _symmetry_equiv_pos_as_xyz
  1  'x, y, z'
loop_
 _atom_site_type_symbol
 _atom_site_label
 _atom_site_symmetry_multiplicity
 _atom_site_fract_x
 _atom_site_fract_y
 _atom_site_fract_z
 _atom_site_occupancy
  Na  Na0  1  0.72337571  0.72337571  0.62500000  1.0
  Na  Na1  1  0.91418332  0.91418332  0.12500000  1.0
  Na  Na2  1  0.54467954  0.45532046  0.37500000  1.0
  Na  Na3  1  0.89106310  0.10893690  0.87500000  1.0
  Cl  Cl4  1  0.50000000  0.70975341  0.00000000  1.0
  Cl  Cl5  1  0.50000000  0.27673320  0.50000000  1.0
  Cl  Cl6  1  0.33120546  0.50000000  0.75000000  1.0
  Cl  Cl7  1  0.57596372  0.50000000  0.25000000  1.0
