# generated using pymatgen
data_NaCl
_symmetry_space_group_name_H-M   'P 1'
_cell_length_a   4.55429122
_cell_length_b   4.55429122
_cell_length_c   13.57732178
_cell_angle_alpha   90.00000000
_cell_angle_beta   90.00000000
_cell_angle_gamma   90.00000000
_symmetry_Int_Tables_number   1
_chemical_formula_structural   NaCl
_chemical_formula_sum   'Na4 Cl4'
_cell_volume   281.61494997
_cell_formula_units_Z   4
loop_
 _symmetry_equiv_pos_site_id
 _symmetry_equiv_pos_as_xyz
  1  'x, y, z'
loop_
 _atom_site_type_symbol
 _atom_site_label
 _atom_site_symmetry_multiplicity
 _atom_site_fract_x
 _atom_site_fract_y
 _atom_site_fract_z
 _atom_site_occupancy
  Na  Na0  1  0.73531205  0.73531205  0.45534293  1.0
  Na  Na1  1  0.32372346  0.32372346  0.36152600  1.0
  Na  Na2  1  0.20424123  0.79575877  0.04924362  1.0
  Na  Na3  1  0.31701381  0.68298619  0.71030055  1.0
  Cl  Cl4  1  0.87379640  0.87379640  0.57744358  1.0
  Cl  Cl5  1  0.63758095  0.63758095  0.54495336  1.0
  Cl  Cl6  1  0.53499419  0.46500581  0.12975798  1.0
  Cl  Cl7  1  0.89990846  0.10009154  0.78430701  1.0
