# generated using pymatgen
data_NaCl
_symmetry_space_group_name_H-M   'P 1'
_cell_length_a   4.59952907
_cell_length_b   4.59952907
_cell_length_c   15.78526468
_cell_angle_alpha   90.00000000
_cell_angle_beta   90.00000000
_cell_angle_gamma   90.00000000
_symmetry_Int_Tables_number   1
_chemical_formula_structural   NaCl
_chemical_formula_sum   'Na4 Cl4'
_cell_volume   333.94781359
_cell_formula_units_Z   4
loop_
 _symmetry_equiv_pos_site_id
 _symmetry_equiv_pos_as_xyz
  1  'x, y, z'
loop_
 _atom_site_type_symbol
 _atom_site_label
 _atom_site_symmetry_multiplicity
 _atom_site_fract_x
 _atom_site_fract_y
 _atom_site_fract_z
 _atom_site_occupancy
  Na  Na0  1  0.94224094  0.57704571  0.72007763  1.0
  Na  Na1  1  0.88318572  0.48172777  0.48937804  1.0
  Na  Na2  1  0.68513108  0.38788656  0.30195653  1.0
  Na  Na3  1  0.69142389  0.02519133  0.20389117  1.0
  Cl  Cl4  1  0.76525157  0.49429564  0.78744846  1.0
  Cl  Cl5  1  0.83469376  0.15905882  0.33226421  1.0
  Cl  Cl6  1  0.35229944  0.90609291  0.69436149  1.0
  Cl  Cl7  1  0.63125751  0.42628910  0.18264277  1.0
