# generated using pymatgen
data_NaCl
_symmetry_space_group_name_H-M   'P 1'
_cell_length_a   3.34824474
_cell_length_b   18.56127454
_cell_length_c   4.27781917
_cell_angle_alpha   90.00000000
_cell_angle_beta   90.00000000
_cell_angle_gamma   90.00000000
_symmetry_Int_Tables_number   1
_chemical_formula_structural   NaCl
_chemical_formula_sum   'Na4 Cl4'
_cell_volume   265.85657900
_cell_formula_units_Z   4
loop_
 _symmetry_equiv_pos_site_id
 _symmetry_equiv_pos_as_xyz
  1  'x, y, z'
loop_
 _atom_site_type_symbol
 _atom_site_label
 _atom_site_symmetry_multiplicity
 _atom_site_fract_x
 _atom_site_fract_y
 _atom_site_fract_z
 _atom_site_occupancy
  Na  Na0  1  0.85350355  0.59401644  0.77651562  1.0
  Na  Na1  1  0.99937406  0.90777512  0.60672335  1.0
  Na  Na2  1  0.28193704  0.36162902  0.65716718  1.0
  Na  Na3  1  0.61982021  0.74222893  0.87238893  1.0
  Cl  Cl4  1  0.50404301  0.70259079  0.33685169  1.0
  Cl  Cl5  1  0.78391724  0.31519816  0.36549031  1.0
  Cl  Cl6  1  0.46254952  0.81809933  0.16831165  1.0
  Cl  Cl7  1  0.96344685  0.93903763  0.92830934  1.0
