# generated using pymatgen
data_NaCl
_symmetry_space_group_name_H-M   'P 1'
_cell_length_a   6.24221292
_cell_length_b   6.24221292
_cell_length_c   10.81565779
_cell_angle_alpha   90.00000000
_cell_angle_beta   90.00000000
_cell_angle_gamma   120.00000000
_symmetry_Int_Tables_number   1
_chemical_formula_structural   NaCl
_chemical_formula_sum   'Na4 Cl4'
_cell_volume   364.97299027
_cell_formula_units_Z   4
loop_
 _symmetry_equiv_pos_site_id
 _symmetry_equiv_pos_as_xyz
  1  'x, y, z'
loop_
 _atom_site_type_symbol
 _atom_site_label
 _atom_site_symmetry_multiplicity
 _atom_site_fract_x
 _atom_site_fract_y
 _atom_site_fract_z
 _atom_site_occupancy
  Na  Na0  1  0.00000000  0.00000000  0.89431967  1.0
  Na  Na1  1  0.50000000  0.00000000  0.03031139  1.0
  Na  Na2  1  0.00000000  0.50000000  0.64103322  1.0
  Na  Na3  1  0.50000000  0.50000000  0.24975960  1.0
  Cl  Cl4  1  0.33333333  0.66666667  0.94518958  1.0
  Cl  Cl5  1  0.66666667  0.33333333  0.78896275  1.0
  Cl  Cl6  1  0.33333333  0.66666667  0.52350209  1.0
  Cl  Cl7  1  0.66666667  0.33333333  0.06100054  1.0
