# generated using pymatgen
data_NaCl
_symmetry_space_group_name_H-M   'P 1'
_cell_length_a   5.47133994
_cell_length_b   5.47133994
_cell_length_c   10.32921094
_cell_angle_alpha   90.00000000
_cell_angle_beta   90.00000000
_cell_angle_gamma   90.00000000
_symmetry_Int_Tables_number   1
_chemical_formula_structural   NaCl
_chemical_formula_sum   'Na4 Cl4'
_cell_volume   309.21072148
_cell_formula_units_Z   4
loop_
 _symmetry_equiv_pos_site_id
 _symmetry_equiv_pos_as_xyz
  1  'x, y, z'
loop_
 _atom_site_type_symbol
 _atom_site_label
 _atom_site_symmetry_multiplicity
 _atom_site_fract_x
 _atom_site_fract_y
 _atom_site_fract_z
 _atom_site_occupancy
  Na  Na0  1  0.80175900  0.64359834  0.97077919  1.0
  Na  Na1  1  0.78411658  0.31292963  0.65929344  1.0
  Na  Na2  1  0.69041262  0.36060738  0.51314769  1.0
  Na  Na3  1  0.06402832  0.04767331  0.14544646  1.0
  Cl  Cl4  1  0.87118175  0.45186680  0.44990928  1.0
  Cl  Cl5  1  0.93564739  0.25856492  0.24451625  1.0
  Cl  Cl6  1  0.01788284  0.83896179  0.81706885  1.0
  Cl  Cl7  1  0.40770746  0.38614027  0.02532338  1.0
