# generated using pymatgen
data_NaCl
_symmetry_space_group_name_H-M   'P 1'
_cell_length_a   5.60597273
_cell_length_b   5.60597273
_cell_length_c   8.25552143
_cell_angle_alpha   90.00000000
_cell_angle_beta   90.00000000
_cell_angle_gamma   90.00000000
_symmetry_Int_Tables_number   1
_chemical_formula_structural   NaCl
_chemical_formula_sum   'Na4 Cl4'
_cell_volume   259.44569615
_cell_formula_units_Z   4
loop_
 _symmetry_equiv_pos_site_id
 _symmetry_equiv_pos_as_xyz
  1  'x, y, z'
loop_
 _atom_site_type_symbol
 _atom_site_label
 _atom_site_symmetry_multiplicity
 _atom_site_fract_x
 _atom_site_fract_y
 _atom_site_fract_z
 _atom_site_occupancy
  Na  Na0  1  0.76364990  0.58915379  0.94578702  1.0
  Na  Na1  1  0.91848007  0.51197372  0.61806980  1.0
  Na  Na2  1  0.73991695  0.37474673  0.79642204  1.0
  Na  Na3  1  0.75541129  0.08310149  0.13598987  1.0
  Cl  Cl4  1  0.73912224  0.63632117  0.52266441  1.0
  Cl  Cl5  1  0.72579976  0.20567216  0.27016234  1.0
  Cl  Cl6  1  0.18436167  0.96502875  0.48513393  1.0
  Cl  Cl7  1  0.58759041  0.47951171  0.97673883  1.0
