# generated using pymatgen
data_NaCl
_symmetry_space_group_name_H-M   'P 1'
_cell_length_a   6.48172226
_cell_length_b   6.48172226
_cell_length_c   8.54624777
_cell_angle_alpha   90.00000000
_cell_angle_beta   90.00000000
_cell_angle_gamma   90.00000000
_symmetry_Int_Tables_number   1
_chemical_formula_structural   NaCl
_chemical_formula_sum   'Na4 Cl4'
_cell_volume   359.05114415
_cell_formula_units_Z   4
loop_
 _symmetry_equiv_pos_site_id
 _symmetry_equiv_pos_as_xyz
  1  'x, y, z'
loop_
 _atom_site_type_symbol
 _atom_site_label
 _atom_site_symmetry_multiplicity
 _atom_site_fract_x
 _atom_site_fract_y
 _atom_site_fract_z
 _atom_site_occupancy
  Na  Na0  1  0.84900547  0.57928210  0.86914130  1.0
  Na  Na1  1  0.85104114  0.39980545  0.95540446  1.0
  Na  Na2  1  0.74473175  0.39078888  0.26936155  1.0
  Na  Na3  1  0.17243990  0.01574692  0.56591038  1.0
  Cl  Cl4  1  0.48176478  0.65233535  0.52268509  1.0
  Cl  Cl5  1  0.74281247  0.20246221  0.33339410  1.0
  Cl  Cl6  1  0.21064675  0.96910301  0.91552928  1.0
  Cl  Cl7  1  0.63495375  0.50162730  0.78106180  1.0
