# generated using pymatgen
data_NaCl
_symmetry_space_group_name_H-M   'P 1'
_cell_length_a   4.42044192
_cell_length_b   4.42044192
_cell_length_c   11.68224480
_cell_angle_alpha   90.00000000
_cell_angle_beta   90.00000000
_cell_angle_gamma   90.00000000
_symmetry_Int_Tables_number   1
_chemical_formula_structural   NaCl
_chemical_formula_sum   'Na4 Cl4'
_cell_volume   228.27464713
_cell_formula_units_Z   4
loop_
 _symmetry_equiv_pos_site_id
 _symmetry_equiv_pos_as_xyz
  1  'x, y, z'
loop_
 _atom_site_type_symbol
 _atom_site_label
 _atom_site_symmetry_multiplicity
 _atom_site_fract_x
 _atom_site_fract_y
 _atom_site_fract_z
 _atom_site_occupancy
  Na  Na0  1  0.89517170  0.69033693  0.87996074  1.0
  Na  Na1  1  0.87948224  0.50162259  0.50113701  1.0
  Na  Na2  1  0.91198337  0.37927725  0.89033222  1.0
  Na  Na3  1  0.23184272  0.54041061  0.08314359  1.0
  Cl  Cl4  1  0.93194945  0.54249383  0.79368946  1.0
  Cl  Cl5  1  0.63877325  0.22765572  0.40184978  1.0
  Cl  Cl6  1  0.42072725  0.96521216  0.37268078  1.0
  Cl  Cl7  1  0.55498924  0.44597191  0.20163932  1.0
