# generated using pymatgen
data_NaCl
_symmetry_space_group_name_H-M   'P 1'
_cell_length_a   5.90551101
_cell_length_b   22.67148832
_cell_length_c   7.14740297
_cell_angle_alpha   120.18764244
_cell_angle_beta   47.46129252
_cell_angle_gamma   78.62452348
_symmetry_Int_Tables_number   1
_chemical_formula_structural   NaCl
_chemical_formula_sum   'Na4 Cl4'
_cell_volume   327.40120816
_cell_formula_units_Z   4
loop_
 _symmetry_equiv_pos_site_id
 _symmetry_equiv_pos_as_xyz
  1  'x, y, z'
loop_
 _atom_site_type_symbol
 _atom_site_label
 _atom_site_symmetry_multiplicity
 _atom_site_fract_x
 _atom_site_fract_y
 _atom_site_fract_z
 _atom_site_occupancy
  Na  Na0  1  0.50000000  0.00000000  0.50000000  1.0
  Na  Na1  1  0.50000000  0.50000000  0.50000000  1.0
  Na  Na2  1  0.35979777  0.22757287  0.66589651  1.0
  Na  Na3  1  0.03092902  0.78406629  0.57225898  1.0
  Cl  Cl4  1  0.00000000  0.50000000  0.50000000  1.0
  Cl  Cl5  1  0.50000000  0.50000000  0.00000000  1.0
  Cl  Cl6  1  0.93755249  0.68426293  0.42444593  1.0
  Cl  Cl7  1  0.44280213  0.44075285  0.47328257  1.0
