# generated using pymatgen
data_NaCl
_symmetry_space_group_name_H-M   'P 1'
_cell_length_a   6.97237742
_cell_length_b   6.97237742
_cell_length_c   6.97237742
_cell_angle_alpha   90.00000000
_cell_angle_beta   90.00000000
_cell_angle_gamma   90.00000000
_symmetry_Int_Tables_number   1
_chemical_formula_structural   NaCl
_chemical_formula_sum   'Na4 Cl4'
_cell_volume   338.95548281
_cell_formula_units_Z   4
loop_
 _symmetry_equiv_pos_site_id
 _symmetry_equiv_pos_as_xyz
  1  'x, y, z'
loop_
 _atom_site_type_symbol
 _atom_site_label
 _atom_site_symmetry_multiplicity
 _atom_site_fract_x
 _atom_site_fract_y
 _atom_site_fract_z
 _atom_site_occupancy
  Na  Na0  1  0.83081241  0.83081241  0.83081241  1.0
  Na  Na1  1  0.17249865  0.67249865  0.82750135  1.0
  Na  Na2  1  0.22209027  0.27790973  0.72209027  1.0
  Na  Na3  1  0.33057430  0.66942570  0.16942570  1.0
  Cl  Cl4  1  0.54131883  0.54131883  0.54131883  1.0
  Cl  Cl5  1  0.36787390  0.86787390  0.63212610  1.0
  Cl  Cl6  1  0.08068106  0.41931894  0.58068106  1.0
  Cl  Cl7  1  0.55660295  0.44339705  0.94339705  1.0
