# generated using pymatgen
data_NaCl
_symmetry_space_group_name_H-M   'P 1'
_cell_length_a   6.59402529
_cell_length_b   6.59402529
_cell_length_c   6.59402529
_cell_angle_alpha   90.00000000
_cell_angle_beta   90.00000000
_cell_angle_gamma   90.00000000
_symmetry_Int_Tables_number   1
_chemical_formula_structural   NaCl
_chemical_formula_sum   'Na4 Cl4'
_cell_volume   286.71593149
_cell_formula_units_Z   4
loop_
 _symmetry_equiv_pos_site_id
 _symmetry_equiv_pos_as_xyz
  1  'x, y, z'
loop_
 _atom_site_type_symbol
 _atom_site_label
 _atom_site_symmetry_multiplicity
 _atom_site_fract_x
 _atom_site_fract_y
 _atom_site_fract_z
 _atom_site_occupancy
  Na  Na0  1  0.88453861  0.88453861  0.88453861  1.0
  Na  Na1  1  0.49831118  0.99831118  0.50168882  1.0
  Na  Na2  1  0.49453663  0.00546337  0.99453663  1.0
  Na  Na3  1  0.37262979  0.62737021  0.12737021  1.0
  Cl  Cl4  1  0.99260934  0.99260934  0.99260934  1.0
  Cl  Cl5  1  0.24858708  0.74858708  0.75141292  1.0
  Cl  Cl6  1  0.15615731  0.34384269  0.65615731  1.0
  Cl  Cl7  1  0.17785259  0.82214741  0.32214741  1.0
