# generated using pymatgen
data_NaCl
_symmetry_space_group_name_H-M   'P 1'
_cell_length_a   3.40945124
_cell_length_b   20.09065776
_cell_length_c   5.97456876
_cell_angle_alpha   90.00000000
_cell_angle_beta   90.00000000
_cell_angle_gamma   90.00000000
_symmetry_Int_Tables_number   1
_chemical_formula_structural   NaCl
_chemical_formula_sum   'Na4 Cl4'
_cell_volume   409.24671599
_cell_formula_units_Z   4
loop_
 _symmetry_equiv_pos_site_id
 _symmetry_equiv_pos_as_xyz
  1  'x, y, z'
loop_
 _atom_site_type_symbol
 _atom_site_label
 _atom_site_symmetry_multiplicity
 _atom_site_fract_x
 _atom_site_fract_y
 _atom_site_fract_z
 _atom_site_occupancy
  Na  Na0  1  0.80059297  0.53496434  0.92610360  1.0
  Na  Na1  1  0.26555051  0.60359178  0.89809682  1.0
  Na  Na2  1  0.55136830  0.75418563  0.88604902  1.0
  Na  Na3  1  0.40396670  0.31359591  0.73034352  1.0
  Cl  Cl4  1  0.55304056  0.59440091  0.65437088  1.0
  Cl  Cl5  1  0.27003027  0.22500122  0.27553608  1.0
  Cl  Cl6  1  0.09369049  0.22883545  0.04787159  1.0
  Cl  Cl7  1  0.07371270  0.98567513  0.49295984  1.0
