# generated using pymatgen
data_NaCl
_symmetry_space_group_name_H-M   'P 1'
_cell_length_a   6.87075077
_cell_length_b   21.50625390
_cell_length_c   2.31945782
_cell_angle_alpha   90.00000000
_cell_angle_beta   51.30754397
_cell_angle_gamma   90.00000000
_symmetry_Int_Tables_number   1
_chemical_formula_structural   NaCl
_chemical_formula_sum   'Na4 Cl4'
_cell_volume   267.50717234
_cell_formula_units_Z   4
loop_
 _symmetry_equiv_pos_site_id
 _symmetry_equiv_pos_as_xyz
  1  'x, y, z'
loop_
 _atom_site_type_symbol
 _atom_site_label
 _atom_site_symmetry_multiplicity
 _atom_site_fract_x
 _atom_site_fract_y
 _atom_site_fract_z
 _atom_site_occupancy
  Na  Na0  1  0.93525232  0.81523093  0.92458022  1.0
  Na  Na1  1  0.01176254  0.49831314  0.65408991  1.0
  Na  Na2  1  0.76411718  0.62550402  0.66378863  1.0
  Na  Na3  1  0.31362754  0.13996988  0.91714798  1.0
  Cl  Cl4  1  0.33031528  0.48174354  0.82662061  1.0
  Cl  Cl5  1  0.32376881  0.13595950  0.38960326  1.0
  Cl  Cl6  1  0.39799672  0.10230514  0.10125877  1.0
  Cl  Cl7  1  0.33200497  0.21019910  0.00622387  1.0
