# generated using pymatgen
data_NaCl
_symmetry_space_group_name_H-M   'P 1'
_cell_length_a   5.50529751
_cell_length_b   5.50529751
_cell_length_c   9.08046100
_cell_angle_alpha   90.00000000
_cell_angle_beta   90.00000000
_cell_angle_gamma   90.00000000
_symmetry_Int_Tables_number   1
_chemical_formula_structural   NaCl
_chemical_formula_sum   'Na4 Cl4'
_cell_volume   275.21334224
_cell_formula_units_Z   4
loop_
 _symmetry_equiv_pos_site_id
 _symmetry_equiv_pos_as_xyz
  1  'x, y, z'
loop_
 _atom_site_type_symbol
 _atom_site_label
 _atom_site_symmetry_multiplicity
 _atom_site_fract_x
 _atom_site_fract_y
 _atom_site_fract_z
 _atom_site_occupancy
  Na  Na0  1  0.99928397  0.99928397  0.37500000  1.0
  Na  Na1  1  0.93184444  0.93184444  0.87500000  1.0
  Na  Na2  1  0.29987067  0.70012933  0.62500000  1.0
  Na  Na3  1  0.98060108  0.01939892  0.12500000  1.0
  Cl  Cl4  1  0.00000000  0.58953572  0.00000000  1.0
  Cl  Cl5  1  0.00000000  0.16994020  0.50000000  1.0
  Cl  Cl6  1  0.27242723  0.00000000  0.25000000  1.0
  Cl  Cl7  1  0.63564010  0.00000000  0.75000000  1.0
