# generated using pymatgen
data_NaCl
_symmetry_space_group_name_H-M   'P 1'
_cell_length_a   5.08729457
_cell_length_b   5.08729457
_cell_length_c   13.08925460
_cell_angle_alpha   90.00000000
_cell_angle_beta   90.00000000
_cell_angle_gamma   90.00000000
_symmetry_Int_Tables_number   1
_chemical_formula_structural   NaCl
_chemical_formula_sum   'Na4 Cl4'
_cell_volume   338.75731812
_cell_formula_units_Z   4
loop_
 _symmetry_equiv_pos_site_id
 _symmetry_equiv_pos_as_xyz
  1  'x, y, z'
loop_
 _atom_site_type_symbol
 _atom_site_label
 _atom_site_symmetry_multiplicity
 _atom_site_fract_x
 _atom_site_fract_y
 _atom_site_fract_z
 _atom_site_occupancy
  Na  Na0  1  0.00000000  0.00000000  0.78316012  1.0
  Na  Na1  1  0.50000000  0.00000000  0.25145033  1.0
  Na  Na2  1  0.00000000  0.50000000  0.27334793  1.0
  Na  Na3  1  0.50000000  0.50000000  0.32063331  1.0
  Cl  Cl4  1  0.95758060  0.50000000  0.61411609  1.0
  Cl  Cl5  1  0.91747046  0.50000000  0.69230805  1.0
  Cl  Cl6  1  0.50000000  0.96348791  0.52942721  1.0
  Cl  Cl7  1  0.50000000  0.24608760  0.30372920  1.0
