# generated using pymatgen
data_NaCl
_symmetry_space_group_name_H-M   'P 1'
_cell_length_a   3.97423194
_cell_length_b   3.97423194
_cell_length_c   11.82266174
_cell_angle_alpha   90.00000000
_cell_angle_beta   90.00000000
_cell_angle_gamma   120.00000000
_symmetry_Int_Tables_number   1
_chemical_formula_structural   NaCl
_chemical_formula_sum   'Na4 Cl4'
_cell_volume   161.71574823
_cell_formula_units_Z   4
loop_
 _symmetry_equiv_pos_site_id
 _symmetry_equiv_pos_as_xyz
  1  'x, y, z'
loop_
 _atom_site_type_symbol
 _atom_site_label
 _atom_site_symmetry_multiplicity
 _atom_site_fract_x
 _atom_site_fract_y
 _atom_site_fract_z
 _atom_site_occupancy
  Na  Na0  1  0.33333333  0.66666667  0.98657162  1.0
  Na  Na1  1  0.03907547  0.96092453  0.48034736  1.0
  Na  Na2  1  0.38129131  0.38129131  0.69774739  1.0
  Na  Na3  1  0.14031780  0.14031780  0.26466703  1.0
  Cl  Cl4  1  0.00000000  0.00000000  0.74932132  1.0
  Cl  Cl5  1  0.33333333  0.66666667  0.64817922  1.0
  Cl  Cl6  1  0.66666667  0.33333333  0.59579994  1.0
  Cl  Cl7  1  0.66666667  0.33333333  0.44972090  1.0
