# generated using pymatgen
data_NaCl
_symmetry_space_group_name_H-M   'P 1'
_cell_length_a   6.98137414
_cell_length_b   6.91695842
_cell_length_c   4.93202868
_cell_angle_alpha   90.00000000
_cell_angle_beta   42.09937312
_cell_angle_gamma   90.00000000
_symmetry_Int_Tables_number   1
_chemical_formula_structural   NaCl
_chemical_formula_sum   'Na4 Cl4'
_cell_volume   159.67159439
_cell_formula_units_Z   4
loop_
 _symmetry_equiv_pos_site_id
 _symmetry_equiv_pos_as_xyz
  1  'x, y, z'
loop_
 _atom_site_type_symbol
 _atom_site_label
 _atom_site_symmetry_multiplicity
 _atom_site_fract_x
 _atom_site_fract_y
 _atom_site_fract_z
 _atom_site_occupancy
  Na  Na0  1  0.86323237  0.75980903  0.36379063  1.0
  Na  Na1  1  0.75340374  0.39594814  0.76883023  1.0
  Na  Na2  1  0.91088506  0.04781076  0.04767672  1.0
  Na  Na3  1  0.22166250  0.04520911  0.96469523  1.0
  Cl  Cl4  1  0.96814707  0.52309112  0.78193431  1.0
  Cl  Cl5  1  0.72015270  0.92745447  0.27794027  1.0
  Cl  Cl6  1  0.69173553  0.50847669  0.46964112  1.0
  Cl  Cl7  1  0.36313218  0.30937219  0.87389974  1.0
