# generated using pymatgen
data_NaCl
_symmetry_space_group_name_H-M   'P 1'
_cell_length_a   6.09236182
_cell_length_b   10.99037780
_cell_length_c   5.47913733
_cell_angle_alpha   90.00000000
_cell_angle_beta   90.00000000
_cell_angle_gamma   90.00000000
_symmetry_Int_Tables_number   1
_chemical_formula_structural   NaCl
_chemical_formula_sum   'Na4 Cl4'
_cell_volume   366.86856026
_cell_formula_units_Z   4
loop_
 _symmetry_equiv_pos_site_id
 _symmetry_equiv_pos_as_xyz
  1  'x, y, z'
loop_
 _atom_site_type_symbol
 _atom_site_label
 _atom_site_symmetry_multiplicity
 _atom_site_fract_x
 _atom_site_fract_y
 _atom_site_fract_z
 _atom_site_occupancy
  Na  Na0  1  0.00000000  0.68730075  0.00000000  1.0
  Na  Na1  1  0.00000000  0.04533293  0.00000000  1.0
  Na  Na2  1  0.50000000  0.39970341  0.00000000  1.0
  Na  Na3  1  0.50000000  0.93065507  0.00000000  1.0
  Cl  Cl4  1  0.25000000  0.25000000  0.90544521  1.0
  Cl  Cl5  1  0.75000000  0.25000000  0.47900367  1.0
  Cl  Cl6  1  0.75000000  0.75000000  0.33135095  1.0
  Cl  Cl7  1  0.25000000  0.75000000  0.92086024  1.0
