# generated using pymatgen
data_NaCl
_symmetry_space_group_name_H-M   'P 1'
_cell_length_a   5.28601917
_cell_length_b   5.26171367
_cell_length_c   3.80247929
_cell_angle_alpha   90.00000000
_cell_angle_beta   47.61254546
_cell_angle_gamma   90.00000000
_symmetry_Int_Tables_number   1
_chemical_formula_structural   NaCl
_chemical_formula_sum   'Na4 Cl4'
_cell_volume   78.11489453
_cell_formula_units_Z   4
loop_
 _symmetry_equiv_pos_site_id
 _symmetry_equiv_pos_as_xyz
  1  'x, y, z'
loop_
 _atom_site_type_symbol
 _atom_site_label
 _atom_site_symmetry_multiplicity
 _atom_site_fract_x
 _atom_site_fract_y
 _atom_site_fract_z
 _atom_site_occupancy
  Na  Na0  1  0.00000000  0.00000000  0.50000000  1.0
  Na  Na1  1  0.00000000  0.50000000  0.50000000  1.0
  Na  Na2  1  0.33144446  0.25000000  0.16014669  1.0
  Na  Na3  1  0.15338501  0.75000000  0.82780299  1.0
  Cl  Cl4  1  0.86626819  0.25000000  0.83565811  1.0
  Cl  Cl5  1  0.84124037  0.75000000  0.38956809  1.0
  Cl  Cl6  1  0.75124413  0.25000000  0.34721858  1.0
  Cl  Cl7  1  0.51947588  0.75000000  0.67613529  1.0
