# generated using pymatgen
data_NaCl
_symmetry_space_group_name_H-M   'P 1'
_cell_length_a   7.13099641
_cell_length_b   7.13099641
_cell_length_c   7.13099641
_cell_angle_alpha   90.00000000
_cell_angle_beta   90.00000000
_cell_angle_gamma   90.00000000
_symmetry_Int_Tables_number   1
_chemical_formula_structural   NaCl
_chemical_formula_sum   'Na4 Cl4'
_cell_volume   362.61908142
_cell_formula_units_Z   4
loop_
 _symmetry_equiv_pos_site_id
 _symmetry_equiv_pos_as_xyz
  1  'x, y, z'
loop_
 _atom_site_type_symbol
 _atom_site_label
 _atom_site_symmetry_multiplicity
 _atom_site_fract_x
 _atom_site_fract_y
 _atom_site_fract_z
 _atom_site_occupancy
  Na  Na0  1  0.79263774  0.79263774  0.79263774  1.0
  Na  Na1  1  0.49924085  0.99924085  0.50075915  1.0
  Na  Na2  1  0.97948472  0.52051528  0.47948472  1.0
  Na  Na3  1  0.12584660  0.87415340  0.37415340  1.0
  Cl  Cl4  1  0.93915379  0.93915379  0.93915379  1.0
  Cl  Cl5  1  0.13506776  0.63506776  0.86493224  1.0
  Cl  Cl6  1  0.21448721  0.28551279  0.71448721  1.0
  Cl  Cl7  1  0.21296405  0.78703595  0.28703595  1.0
