# generated using pymatgen
data_NaCl
_symmetry_space_group_name_H-M   'P 1'
_cell_length_a   6.77024320
_cell_length_b   8.48305854
_cell_length_c   6.86238261
_cell_angle_alpha   90.00000000
_cell_angle_beta   120.31233459
_cell_angle_gamma   90.00000000
_symmetry_Int_Tables_number   1
_chemical_formula_structural   NaCl
_chemical_formula_sum   'Na4 Cl4'
_cell_volume   340.24113693
_cell_formula_units_Z   4
loop_
 _symmetry_equiv_pos_site_id
 _symmetry_equiv_pos_as_xyz
  1  'x, y, z'
loop_
 _atom_site_type_symbol
 _atom_site_label
 _atom_site_symmetry_multiplicity
 _atom_site_fract_x
 _atom_site_fract_y
 _atom_site_fract_z
 _atom_site_occupancy
  Na  Na0  1  0.91283510  0.64501273  0.21557064  1.0
  Na  Na1  1  0.85902831  0.43104123  0.76061868  1.0
  Na  Na2  1  0.03185073  0.98448904  0.15494451  1.0
  Na  Na3  1  0.12381936  0.27651476  0.82234416  1.0
  Cl  Cl4  1  0.99253722  0.83158730  0.88458322  1.0
  Cl  Cl5  1  0.84295438  0.78627559  0.52401259  1.0
  Cl  Cl6  1  0.54055532  0.78890461  0.73254730  1.0
  Cl  Cl7  1  0.23286850  0.12664299  0.69531593  1.0
