# generated using pymatgen
data_NaCl
_symmetry_space_group_name_H-M   'P 1'
_cell_length_a   4.63877494
_cell_length_b   11.16134054
_cell_length_c   7.73306286
_cell_angle_alpha   90.00000000
_cell_angle_beta   90.00000000
_cell_angle_gamma   90.00000000
_symmetry_Int_Tables_number   1
_chemical_formula_structural   NaCl
_chemical_formula_sum   'Na4 Cl4'
_cell_volume   400.37891813
_cell_formula_units_Z   4
loop_
 _symmetry_equiv_pos_site_id
 _symmetry_equiv_pos_as_xyz
  1  'x, y, z'
loop_
 _atom_site_type_symbol
 _atom_site_label
 _atom_site_symmetry_multiplicity
 _atom_site_fract_x
 _atom_site_fract_y
 _atom_site_fract_z
 _atom_site_occupancy
  Na  Na0  1  0.50000000  0.62607434  0.24981727  1.0
  Na  Na1  1  0.50000000  0.04386276  0.76473895  1.0
  Na  Na2  1  0.50000000  0.95566784  0.09302081  1.0
  Na  Na3  1  0.50000000  0.25898154  0.73682640  1.0
  Cl  Cl4  1  0.00000000  0.86067726  0.85374449  1.0
  Cl  Cl5  1  0.00000000  0.66632461  0.90616184  1.0
  Cl  Cl6  1  0.50000000  0.73029527  0.59117914  1.0
  Cl  Cl7  1  0.50000000  0.38123824  0.82376784  1.0
