# generated using pymatgen
data_NaCl
_symmetry_space_group_name_H-M   'P 1'
_cell_length_a   4.93991338
_cell_length_b   11.92694890
_cell_length_c   6.78901161
_cell_angle_alpha   90.00000000
_cell_angle_beta   90.00000000
_cell_angle_gamma   90.00000000
_symmetry_Int_Tables_number   1
_chemical_formula_structural   NaCl
_chemical_formula_sum   'Na4 Cl4'
_cell_volume   399.99562729
_cell_formula_units_Z   4
loop_
 _symmetry_equiv_pos_site_id
 _symmetry_equiv_pos_as_xyz
  1  'x, y, z'
loop_
 _atom_site_type_symbol
 _atom_site_label
 _atom_site_symmetry_multiplicity
 _atom_site_fract_x
 _atom_site_fract_y
 _atom_site_fract_z
 _atom_site_occupancy
  Na  Na0  1  0.25000000  0.60448013  0.26829715  1.0
  Na  Na1  1  0.75000000  0.00183736  0.34039760  1.0
  Na  Na2  1  0.75000000  0.42055179  0.67126326  1.0
  Na  Na3  1  0.25000000  0.75261463  0.63462271  1.0
  Cl  Cl4  1  0.00000000  0.00000000  0.90755309  1.0
  Cl  Cl5  1  0.50000000  0.00000000  0.45083238  1.0
  Cl  Cl6  1  0.50000000  0.50000000  0.17076705  1.0
  Cl  Cl7  1  0.00000000  0.50000000  0.82361562  1.0
