# generated using pymatgen
data_NaCl
_symmetry_space_group_name_H-M   'P 1'
_cell_length_a   5.72491470
_cell_length_b   2.91031792
_cell_length_c   10.42167891
_cell_angle_alpha   90.00000000
_cell_angle_beta   35.29079526
_cell_angle_gamma   90.00000000
_symmetry_Int_Tables_number   1
_chemical_formula_structural   NaCl
_chemical_formula_sum   'Na4 Cl4'
_cell_volume   100.31582114
_cell_formula_units_Z   4
loop_
 _symmetry_equiv_pos_site_id
 _symmetry_equiv_pos_as_xyz
  1  'x, y, z'
loop_
 _atom_site_type_symbol
 _atom_site_label
 _atom_site_symmetry_multiplicity
 _atom_site_fract_x
 _atom_site_fract_y
 _atom_site_fract_z
 _atom_site_occupancy
  Na  Na0  1  0.71828078  0.64492326  0.52699030  1.0
  Na  Na1  1  0.74363132  0.31798941  0.63953703  1.0
  Na  Na2  1  0.73673289  0.82698982  0.10822742  1.0
  Na  Na3  1  0.30266747  0.10801520  0.82238486  1.0
  Cl  Cl4  1  0.97534843  0.67846063  0.55282964  1.0
  Cl  Cl5  1  0.66325883  0.98662889  0.96615595  1.0
  Cl  Cl6  1  0.75207574  0.85969178  0.41949127  1.0
  Cl  Cl7  1  0.90592683  0.57349418  0.84436931  1.0
