# generated using pymatgen
data_NaCl
_symmetry_space_group_name_H-M   'P 1'
_cell_length_a   6.67387818
_cell_length_b   11.98427929
_cell_length_c   4.89065444
_cell_angle_alpha   90.00000000
_cell_angle_beta   90.00000000
_cell_angle_gamma   90.00000000
_symmetry_Int_Tables_number   1
_chemical_formula_structural   NaCl
_chemical_formula_sum   'Na4 Cl4'
_cell_volume   391.16246525
_cell_formula_units_Z   4
loop_
 _symmetry_equiv_pos_site_id
 _symmetry_equiv_pos_as_xyz
  1  'x, y, z'
loop_
 _atom_site_type_symbol
 _atom_site_label
 _atom_site_symmetry_multiplicity
 _atom_site_fract_x
 _atom_site_fract_y
 _atom_site_fract_z
 _atom_site_occupancy
  Na  Na0  1  0.98108320  0.79753127  0.30863909  1.0
  Na  Na1  1  0.21416443  0.00080416  0.65975105  1.0
  Na  Na2  1  0.48107244  0.17207574  0.58423105  1.0
  Na  Na3  1  0.30628047  0.70742526  0.82547834  1.0
  Cl  Cl4  1  0.94627775  0.81447218  0.91198826  1.0
  Cl  Cl5  1  0.09854102  0.28470697  0.20237333  1.0
  Cl  Cl6  1  0.39057462  0.48682299  0.02224553  1.0
  Cl  Cl7  1  0.40375617  0.92209524  0.31345262  1.0
