# generated using pymatgen
data_NaCl
_symmetry_space_group_name_H-M   'P 1'
_cell_length_a   4.00998364
_cell_length_b   3.32128390
_cell_length_c   10.98883796
_cell_angle_alpha   90.00000000
_cell_angle_beta   90.00000000
_cell_angle_gamma   90.00000000
_symmetry_Int_Tables_number   1
_chemical_formula_structural   NaCl
_chemical_formula_sum   'Na4 Cl4'
_cell_volume   146.35257580
_cell_formula_units_Z   4
loop_
 _symmetry_equiv_pos_site_id
 _symmetry_equiv_pos_as_xyz
  1  'x, y, z'
loop_
 _atom_site_type_symbol
 _atom_site_label
 _atom_site_symmetry_multiplicity
 _atom_site_fract_x
 _atom_site_fract_y
 _atom_site_fract_z
 _atom_site_occupancy
  Na  Na0  1  0.73997126  0.55865723  0.54626950  1.0
  Na  Na1  1  0.21251707  0.36107895  0.79558158  1.0
  Na  Na2  1  0.92673478  0.10138952  0.63361212  1.0
  Na  Na3  1  0.11343057  0.63929243  0.66449867  1.0
  Cl  Cl4  1  0.00000000  0.64535957  0.53345542  1.0
  Cl  Cl5  1  0.50000000  0.44929999  0.47465320  1.0
  Cl  Cl6  1  0.00000000  0.90320822  0.24856629  1.0
  Cl  Cl7  1  0.50000000  0.24146582  0.15172905  1.0
