# generated using pymatgen
data_NaCl
_symmetry_space_group_name_H-M   'P 1'
_cell_length_a   3.66130435
_cell_length_b   7.05977099
_cell_length_c   10.90740710
_cell_angle_alpha   90.00000000
_cell_angle_beta   41.07564118
_cell_angle_gamma   90.00000000
_symmetry_Int_Tables_number   1
_chemical_formula_structural   NaCl
_chemical_formula_sum   'Na4 Cl4'
_cell_volume   185.24631178
_cell_formula_units_Z   4
loop_
 _symmetry_equiv_pos_site_id
 _symmetry_equiv_pos_as_xyz
  1  'x, y, z'
loop_
 _atom_site_type_symbol
 _atom_site_label
 _atom_site_symmetry_multiplicity
 _atom_site_fract_x
 _atom_site_fract_y
 _atom_site_fract_z
 _atom_site_occupancy
  Na  Na0  1  0.00000000  0.37612625  0.00000000  1.0
  Na  Na1  1  0.50000000  0.45795008  0.00000000  1.0
  Na  Na2  1  0.00000000  0.65222486  0.50000000  1.0
  Na  Na3  1  0.50000000  0.62810626  0.50000000  1.0
  Cl  Cl4  1  0.04598442  0.00056408  0.68144515  1.0
  Cl  Cl5  1  0.48390812  0.57597157  0.34957948  1.0
  Cl  Cl6  1  0.40177534  0.46971152  0.60954224  1.0
  Cl  Cl7  1  0.47217584  0.90434600  0.31470759  1.0
