# generated using pymatgen
data_NaCl
_symmetry_space_group_name_H-M   'P 1'
_cell_length_a   4.72335181
_cell_length_b   9.92285032
_cell_length_c   2.02196014
_cell_angle_alpha   90.00000000
_cell_angle_beta   90.00000000
_cell_angle_gamma   90.00000000
_symmetry_Int_Tables_number   1
_chemical_formula_structural   NaCl
_chemical_formula_sum   'Na4 Cl4'
_cell_volume   94.76747832
_cell_formula_units_Z   4
loop_
 _symmetry_equiv_pos_site_id
 _symmetry_equiv_pos_as_xyz
  1  'x, y, z'
loop_
 _atom_site_type_symbol
 _atom_site_label
 _atom_site_symmetry_multiplicity
 _atom_site_fract_x
 _atom_site_fract_y
 _atom_site_fract_z
 _atom_site_occupancy
  Na  Na0  1  0.86737102  0.71823253  0.34317204  1.0
  Na  Na1  1  0.17551365  0.07055651  0.64591678  1.0
  Na  Na2  1  0.46957670  0.16512071  0.55757940  1.0
  Na  Na3  1  0.38304707  0.66623909  0.35287274  1.0
  Cl  Cl4  1  0.90912478  0.85793110  0.97979748  1.0
  Cl  Cl5  1  0.08739283  0.13921586  0.12250200  1.0
  Cl  Cl6  1  0.49968328  0.44582716  0.88624484  1.0
  Cl  Cl7  1  0.48014291  0.97888554  0.07255482  1.0
