# generated using pymatgen
data_NaCl
_symmetry_space_group_name_H-M   'P 1'
_cell_length_a   9.08337374
_cell_length_b   4.20738827
_cell_length_c   9.18052258
_cell_angle_alpha   90.00000000
_cell_angle_beta   90.00000000
_cell_angle_gamma   90.00000000
_symmetry_Int_Tables_number   1
_chemical_formula_structural   NaCl
_chemical_formula_sum   'Na4 Cl4'
_cell_volume   350.85460314
_cell_formula_units_Z   4
loop_
 _symmetry_equiv_pos_site_id
 _symmetry_equiv_pos_as_xyz
  1  'x, y, z'
loop_
 _atom_site_type_symbol
 _atom_site_label
 _atom_site_symmetry_multiplicity
 _atom_site_fract_x
 _atom_site_fract_y
 _atom_site_fract_z
 _atom_site_occupancy
  Na  Na0  1  0.00000000  0.00000000  0.23578768  1.0
  Na  Na1  1  0.50000000  0.00000000  0.24358016  1.0
  Na  Na2  1  0.25000000  0.37949728  0.91535431  1.0
  Na  Na3  1  0.75000000  0.45353985  0.75913886  1.0
  Cl  Cl4  1  0.00087579  0.42021552  0.98214361  1.0
  Cl  Cl5  1  0.77551697  0.61310751  0.58666118  1.0
  Cl  Cl6  1  0.33093480  0.27494111  0.48941856  1.0
  Cl  Cl7  1  0.72160936  0.73199467  0.33346078  1.0
