# generated using pymatgen
data_NaCl
_symmetry_space_group_name_H-M   'P 1'
_cell_length_a   5.07746281
_cell_length_b   13.18962153
_cell_length_c   3.39761608
_cell_angle_alpha   90.00000000
_cell_angle_beta   90.00000000
_cell_angle_gamma   90.00000000
_symmetry_Int_Tables_number   1
_chemical_formula_structural   NaCl
_chemical_formula_sum   'Na4 Cl4'
_cell_volume   227.53771283
_cell_formula_units_Z   4
loop_
 _symmetry_equiv_pos_site_id
 _symmetry_equiv_pos_as_xyz
  1  'x, y, z'
loop_
 _atom_site_type_symbol
 _atom_site_label
 _atom_site_symmetry_multiplicity
 _atom_site_fract_x
 _atom_site_fract_y
 _atom_site_fract_z
 _atom_site_occupancy
  Na  Na0  1  0.95495256  0.66224108  0.39930297  1.0
  Na  Na1  1  0.11516484  0.10159514  0.61906026  1.0
  Na  Na2  1  0.13197750  0.35106644  0.46401966  1.0
  Na  Na3  1  0.17030598  0.82109532  0.87126701  1.0
  Cl  Cl4  1  0.88742125  0.83272390  0.94944126  1.0
  Cl  Cl5  1  0.23914452  0.30915148  0.16738911  1.0
  Cl  Cl6  1  0.30097764  0.05880722  0.08580333  1.0
  Cl  Cl7  1  0.45699414  0.69826076  0.93452715  1.0
