# generated using pymatgen
data_NaCl
_symmetry_space_group_name_H-M   'P 1'
_cell_length_a   5.30263853
_cell_length_b   5.30263853
_cell_length_c   9.67722201
_cell_angle_alpha   90.00000000
_cell_angle_beta   90.00000000
_cell_angle_gamma   90.00000000
_symmetry_Int_Tables_number   1
_chemical_formula_structural   NaCl
_chemical_formula_sum   'Na4 Cl4'
_cell_volume   272.10389022
_cell_formula_units_Z   4
loop_
 _symmetry_equiv_pos_site_id
 _symmetry_equiv_pos_as_xyz
  1  'x, y, z'
loop_
 _atom_site_type_symbol
 _atom_site_label
 _atom_site_symmetry_multiplicity
 _atom_site_fract_x
 _atom_site_fract_y
 _atom_site_fract_z
 _atom_site_occupancy
  Na  Na0  1  0.86387551  0.36387551  0.45982504  1.0
  Na  Na1  1  0.68129556  0.18129556  0.15193969  1.0
  Na  Na2  1  0.60939229  0.89060771  0.02043096  1.0
  Na  Na3  1  0.13074260  0.36925740  0.06924829  1.0
  Cl  Cl4  1  0.91333058  0.41333058  0.95046651  1.0
  Cl  Cl5  1  0.58727000  0.08727000  0.76113735  1.0
  Cl  Cl6  1  0.52256789  0.97743211  0.47188701  1.0
  Cl  Cl7  1  0.21179675  0.28820325  0.33494445  1.0
