# generated using pymatgen
data_NaCl
_symmetry_space_group_name_H-M   'P 1'
_cell_length_a   7.48826925
_cell_length_b   2.57239365
_cell_length_c   14.43448554
_cell_angle_alpha   90.00000000
_cell_angle_beta   46.85357149
_cell_angle_gamma   90.00000000
_symmetry_Int_Tables_number   1
_chemical_formula_structural   NaCl
_chemical_formula_sum   'Na4 Cl4'
_cell_volume   202.86633885
_cell_formula_units_Z   4
loop_
 _symmetry_equiv_pos_site_id
 _symmetry_equiv_pos_as_xyz
  1  'x, y, z'
loop_
 _atom_site_type_symbol
 _atom_site_label
 _atom_site_symmetry_multiplicity
 _atom_site_fract_x
 _atom_site_fract_y
 _atom_site_fract_z
 _atom_site_occupancy
  Na  Na0  1  0.28076100  0.86226941  0.05953713  1.0
  Na  Na1  1  0.17402349  0.43688706  0.27168299  1.0
  Na  Na2  1  0.59450322  0.75541546  0.79741126  1.0
  Na  Na3  1  0.10459954  0.98829349  0.00140577  1.0
  Cl  Cl4  1  0.21921369  0.00000000  0.86588892  1.0
  Cl  Cl5  1  0.79213902  0.50000000  0.72562713  1.0
  Cl  Cl6  1  0.77120063  0.00000000  0.29766538  1.0
  Cl  Cl7  1  0.01258953  0.50000000  0.38246364  1.0
