# generated using pymatgen
data_NaCl
_symmetry_space_group_name_H-M   'P 1'
_cell_length_a   5.22518838
_cell_length_b   7.12634682
_cell_length_c   16.32519492
_cell_angle_alpha   90.00000000
_cell_angle_beta   26.76360740
_cell_angle_gamma   90.00000000
_symmetry_Int_Tables_number   1
_chemical_formula_structural   NaCl
_chemical_formula_sum   'Na4 Cl4'
_cell_volume   273.74069218
_cell_formula_units_Z   4
loop_
 _symmetry_equiv_pos_site_id
 _symmetry_equiv_pos_as_xyz
  1  'x, y, z'
loop_
 _atom_site_type_symbol
 _atom_site_label
 _atom_site_symmetry_multiplicity
 _atom_site_fract_x
 _atom_site_fract_y
 _atom_site_fract_z
 _atom_site_occupancy
  Na  Na0  1  0.47479140  0.57603824  0.36016811  1.0
  Na  Na1  1  0.11502017  0.42469737  0.78649390  1.0
  Na  Na2  1  0.64020006  0.19811795  0.84436801  1.0
  Na  Na3  1  0.27291219  0.72956510  0.70543211  1.0
  Cl  Cl4  1  0.00133786  0.36112295  0.99956609  1.0
  Cl  Cl5  1  0.38789794  0.77504298  0.38096194  1.0
  Cl  Cl6  1  0.14772606  0.16076501  0.91258863  1.0
  Cl  Cl7  1  0.13513764  0.78303492  0.66831908  1.0
