# generated using pymatgen
data_NaCl
_symmetry_space_group_name_H-M   'P 1'
_cell_length_a   7.46801603
_cell_length_b   3.66394408
_cell_length_c   15.99347897
_cell_angle_alpha   90.00000000
_cell_angle_beta   36.95336876
_cell_angle_gamma   90.00000000
_symmetry_Int_Tables_number   1
_chemical_formula_structural   NaCl
_chemical_formula_sum   'Na4 Cl4'
_cell_volume   263.08167228
_cell_formula_units_Z   4
loop_
 _symmetry_equiv_pos_site_id
 _symmetry_equiv_pos_as_xyz
  1  'x, y, z'
loop_
 _atom_site_type_symbol
 _atom_site_label
 _atom_site_symmetry_multiplicity
 _atom_site_fract_x
 _atom_site_fract_y
 _atom_site_fract_z
 _atom_site_occupancy
  Na  Na0  1  0.72734495  0.69453914  0.57736100  1.0
  Na  Na1  1  0.20355673  0.54076981  0.67329080  1.0
  Na  Na2  1  0.37496552  0.98277994  0.10699016  1.0
  Na  Na3  1  0.70864542  0.23694862  0.51720138  1.0
  Cl  Cl4  1  0.58730839  0.57032966  0.99842679  1.0
  Cl  Cl5  1  0.06388995  0.34872659  0.32233172  1.0
  Cl  Cl6  1  0.41609409  0.71509065  0.44512119  1.0
  Cl  Cl7  1  0.46730688  0.13278544  0.74730927  1.0
