# generated using pymatgen
data_NaCl
_symmetry_space_group_name_H-M   'P 1'
_cell_length_a   3.65647961
_cell_length_b   7.63698484
_cell_length_c   3.48940575
_cell_angle_alpha   90.00000000
_cell_angle_beta   90.00000000
_cell_angle_gamma   90.00000000
_symmetry_Int_Tables_number   1
_chemical_formula_structural   NaCl
_chemical_formula_sum   'Na4 Cl4'
_cell_volume   97.43983881
_cell_formula_units_Z   4
loop_
 _symmetry_equiv_pos_site_id
 _symmetry_equiv_pos_as_xyz
  1  'x, y, z'
loop_
 _atom_site_type_symbol
 _atom_site_label
 _atom_site_symmetry_multiplicity
 _atom_site_fract_x
 _atom_site_fract_y
 _atom_site_fract_z
 _atom_site_occupancy
  Na  Na0  1  0.00000000  0.65512615  0.37527368  1.0
  Na  Na1  1  0.00000000  0.14963124  0.78095801  1.0
  Na  Na2  1  0.50000000  0.38833593  0.03185165  1.0
  Na  Na3  1  0.50000000  0.88981465  0.56584655  1.0
  Cl  Cl4  1  0.00000000  0.93082517  0.96483837  1.0
  Cl  Cl5  1  0.00000000  0.36146158  0.94507840  1.0
  Cl  Cl6  1  0.50000000  0.40401752  0.36751539  1.0
  Cl  Cl7  1  0.50000000  0.48217240  0.55492241  1.0
