# generated using pymatgen
data_NaCl
_symmetry_space_group_name_H-M   'P 1'
_cell_length_a   4.19590682
_cell_length_b   11.99837452
_cell_length_c   11.20421313
_cell_angle_alpha   90.00000000
_cell_angle_beta   24.48105826
_cell_angle_gamma   90.00000000
_symmetry_Int_Tables_number   1
_chemical_formula_structural   NaCl
_chemical_formula_sum   'Na4 Cl4'
_cell_volume   233.74449026
_cell_formula_units_Z   4
loop_
 _symmetry_equiv_pos_site_id
 _symmetry_equiv_pos_as_xyz
  1  'x, y, z'
loop_
 _atom_site_type_symbol
 _atom_site_label
 _atom_site_symmetry_multiplicity
 _atom_site_fract_x
 _atom_site_fract_y
 _atom_site_fract_z
 _atom_site_occupancy
  Na  Na0  1  0.90313859  0.73295149  0.31026834  1.0
  Na  Na1  1  0.70218129  0.85650101  0.40750441  1.0
  Na  Na2  1  0.94254652  0.25389402  0.98462329  1.0
  Na  Na3  1  0.74703802  0.46275639  0.58016559  1.0
  Cl  Cl4  1  0.02600966  0.76903300  0.92802464  1.0
  Cl  Cl5  1  0.72545410  0.72412085  0.73558770  1.0
  Cl  Cl6  1  0.11730317  0.49129944  0.61269825  1.0
  Cl  Cl7  1  0.63408450  0.24352940  0.54906061  1.0
