# generated using pymatgen
data_NaCl
_symmetry_space_group_name_H-M   'P 1'
_cell_length_a   7.05206068
_cell_length_b   3.01987525
_cell_length_c   12.40027637
_cell_angle_alpha   90.00000000
_cell_angle_beta   59.76322472
_cell_angle_gamma   90.00000000
_symmetry_Int_Tables_number   1
_chemical_formula_structural   NaCl
_chemical_formula_sum   'Na4 Cl4'
_cell_volume   228.15285199
_cell_formula_units_Z   4
loop_
 _symmetry_equiv_pos_site_id
 _symmetry_equiv_pos_as_xyz
  1  'x, y, z'
loop_
 _atom_site_type_symbol
 _atom_site_label
 _atom_site_symmetry_multiplicity
 _atom_site_fract_x
 _atom_site_fract_y
 _atom_site_fract_z
 _atom_site_occupancy
  Na  Na0  1  0.92863539  0.72895011  0.36833727  1.0
  Na  Na1  1  0.44375740  0.09080201  0.82522444  1.0
  Na  Na2  1  0.07655764  0.62175955  0.05741484  1.0
  Na  Na3  1  0.80298004  0.26594798  0.68475899  1.0
  Cl  Cl4  1  0.87813865  0.85362505  0.83932152  1.0
  Cl  Cl5  1  0.28335579  0.45223903  0.03464445  1.0
  Cl  Cl6  1  0.67058695  0.45767702  0.40683130  1.0
  Cl  Cl7  1  0.47506672  0.28783915  0.52653129  1.0
