# generated using pymatgen
data_NaCl
_symmetry_space_group_name_H-M   'P 1'
_cell_length_a   5.32322136
_cell_length_b   12.06414029
_cell_length_c   10.63402230
_cell_angle_alpha   90.00000000
_cell_angle_beta   27.84381885
_cell_angle_gamma   90.00000000
_symmetry_Int_Tables_number   1
_chemical_formula_structural   NaCl
_chemical_formula_sum   'Na4 Cl4'
_cell_volume   318.96567647
_cell_formula_units_Z   4
loop_
 _symmetry_equiv_pos_site_id
 _symmetry_equiv_pos_as_xyz
  1  'x, y, z'
loop_
 _atom_site_type_symbol
 _atom_site_label
 _atom_site_symmetry_multiplicity
 _atom_site_fract_x
 _atom_site_fract_y
 _atom_site_fract_z
 _atom_site_occupancy
  Na  Na0  1  0.92048690  0.71992884  0.51128802  1.0
  Na  Na1  1  0.38844235  0.40782124  0.44604791  1.0
  Na  Na2  1  0.99964008  0.09087997  0.96936609  1.0
  Na  Na3  1  0.70127087  0.90404153  0.11357978  1.0
  Cl  Cl4  1  0.00000000  0.00000000  0.00000000  1.0
  Cl  Cl5  1  0.00000000  0.50000000  0.00000000  1.0
  Cl  Cl6  1  0.65775916  0.25000000  0.51173232  1.0
  Cl  Cl7  1  0.54032548  0.75000000  0.55450063  1.0
