# generated using pymatgen
data_NaCl
_symmetry_space_group_name_H-M   'P 1'
_cell_length_a   4.82847468
_cell_length_b   14.92349840
_cell_length_c   12.46940225
_cell_angle_alpha   90.00000000
_cell_angle_beta   27.11503600
_cell_angle_gamma   90.00000000
_symmetry_Int_Tables_number   1
_chemical_formula_structural   NaCl
_chemical_formula_sum   'Na4 Cl4'
_cell_volume   409.52467960
_cell_formula_units_Z   4
loop_
 _symmetry_equiv_pos_site_id
 _symmetry_equiv_pos_as_xyz
  1  'x, y, z'
loop_
 _atom_site_type_symbol
 _atom_site_label
 _atom_site_symmetry_multiplicity
 _atom_site_fract_x
 _atom_site_fract_y
 _atom_site_fract_z
 _atom_site_occupancy
  Na  Na0  1  0.85541632  0.67293341  0.48518056  1.0
  Na  Na1  1  0.68334928  0.86262093  0.84279736  1.0
  Na  Na2  1  0.39250625  0.30549580  0.11464685  1.0
  Na  Na3  1  0.89105991  0.07736023  0.98102885  1.0
  Cl  Cl4  1  0.82123571  0.84813430  0.99835246  1.0
  Cl  Cl5  1  0.65251725  0.69840062  0.43454449  1.0
  Cl  Cl6  1  0.32646165  0.10477316  0.47640025  1.0
  Cl  Cl7  1  0.87068819  0.53347746  0.74500441  1.0
