# generated using pymatgen
data_NaCl
_symmetry_space_group_name_H-M   'P 1'
_cell_length_a   5.24040946
_cell_length_b   11.19437843
_cell_length_c   3.44382171
_cell_angle_alpha   90.00000000
_cell_angle_beta   90.00000000
_cell_angle_gamma   90.00000000
_symmetry_Int_Tables_number   1
_chemical_formula_structural   NaCl
_chemical_formula_sum   'Na4 Cl4'
_cell_volume   202.02534904
_cell_formula_units_Z   4
loop_
 _symmetry_equiv_pos_site_id
 _symmetry_equiv_pos_as_xyz
  1  'x, y, z'
loop_
 _atom_site_type_symbol
 _atom_site_label
 _atom_site_symmetry_multiplicity
 _atom_site_fract_x
 _atom_site_fract_y
 _atom_site_fract_z
 _atom_site_occupancy
  Na  Na0  1  0.00000000  0.71556162  0.45615734  1.0
  Na  Na1  1  0.00000000  0.07156453  0.68982633  1.0
  Na  Na2  1  0.50000000  0.36612036  0.03172427  1.0
  Na  Na3  1  0.50000000  0.84459462  0.24930122  1.0
  Cl  Cl4  1  0.00000000  0.71328053  0.87404431  1.0
  Cl  Cl5  1  0.00000000  0.24641419  0.21911003  1.0
  Cl  Cl6  1  0.50000000  0.18275269  0.45072115  1.0
  Cl  Cl7  1  0.50000000  0.61423862  0.60010659  1.0
