# generated using pymatgen
data_NaCl
_symmetry_space_group_name_H-M   'P 1'
_cell_length_a   5.65045139
_cell_length_b   5.65045139
_cell_length_c   4.17707413
_cell_angle_alpha   90.00000000
_cell_angle_beta   90.00000000
_cell_angle_gamma   90.00000000
_symmetry_Int_Tables_number   1
_chemical_formula_structural   NaCl
_chemical_formula_sum   'Na4 Cl4'
_cell_volume   133.36395580
_cell_formula_units_Z   4
loop_
 _symmetry_equiv_pos_site_id
 _symmetry_equiv_pos_as_xyz
  1  'x, y, z'
loop_
 _atom_site_type_symbol
 _atom_site_label
 _atom_site_symmetry_multiplicity
 _atom_site_fract_x
 _atom_site_fract_y
 _atom_site_fract_z
 _atom_site_occupancy
  Na  Na0  1  0.87111635  0.72879685  0.35701970  1.0
  Na  Na1  1  0.71515973  0.09134433  0.59837314  1.0
  Na  Na2  1  0.17228590  0.98175674  0.78661298  1.0
  Na  Na3  1  0.65363768  0.36692019  0.63353691  1.0
  Cl  Cl4  1  0.89817800  0.81194463  0.92311137  1.0
  Cl  Cl5  1  0.56479020  0.19286724  0.22060201  1.0
  Cl  Cl6  1  0.50599115  0.86018994  0.12609469  1.0
  Cl  Cl7  1  0.91852242  0.43669296  0.30449163  1.0
