# generated using pymatgen
data_NaCl
_symmetry_space_group_name_H-M   'P 1'
_cell_length_a   6.95779893
_cell_length_b   14.35714912
_cell_length_c   2.63269909
_cell_angle_alpha   90.00000000
_cell_angle_beta   90.00000000
_cell_angle_gamma   90.00000000
_symmetry_Int_Tables_number   1
_chemical_formula_structural   NaCl
_chemical_formula_sum   'Na4 Cl4'
_cell_volume   262.99125566
_cell_formula_units_Z   4
loop_
 _symmetry_equiv_pos_site_id
 _symmetry_equiv_pos_as_xyz
  1  'x, y, z'
loop_
 _atom_site_type_symbol
 _atom_site_label
 _atom_site_symmetry_multiplicity
 _atom_site_fract_x
 _atom_site_fract_y
 _atom_site_fract_z
 _atom_site_occupancy
  Na  Na0  1  0.31866828  0.77259593  0.35664372  1.0
  Na  Na1  1  0.63377971  0.13115935  0.68730431  1.0
  Na  Na2  1  0.99989257  0.18735721  0.53998814  1.0
  Na  Na3  1  0.27324697  0.54302413  0.72553166  1.0
  Cl  Cl4  1  0.00000000  0.92650833  0.83499862  1.0
  Cl  Cl5  1  0.00000000  0.21370395  0.15292055  1.0
  Cl  Cl6  1  0.50000000  0.70777933  0.46850285  1.0
  Cl  Cl7  1  0.50000000  0.99979208  0.77425544  1.0
