# generated using pymatgen
data_NaCl
_symmetry_space_group_name_H-M   'P 1'
_cell_length_a   3.24051269
_cell_length_b   3.24051269
_cell_length_c   16.75631447
_cell_angle_alpha   90.00000000
_cell_angle_beta   90.00000000
_cell_angle_gamma   90.00000000
_symmetry_Int_Tables_number   1
_chemical_formula_structural   NaCl
_chemical_formula_sum   'Na4 Cl4'
_cell_volume   175.95675954
_cell_formula_units_Z   4
loop_
 _symmetry_equiv_pos_site_id
 _symmetry_equiv_pos_as_xyz
  1  'x, y, z'
loop_
 _atom_site_type_symbol
 _atom_site_label
 _atom_site_symmetry_multiplicity
 _atom_site_fract_x
 _atom_site_fract_y
 _atom_site_fract_z
 _atom_site_occupancy
  Na  Na0  1  0.50000000  0.50000000  0.18855309  1.0
  Na  Na1  1  0.50000000  0.50000000  0.72885643  1.0
  Na  Na2  1  0.50000000  0.50000000  0.52283689  1.0
  Na  Na3  1  0.50000000  0.50000000  0.85336907  1.0
  Cl  Cl4  1  0.07702091  0.36821222  0.97324577  1.0
  Cl  Cl5  1  0.53276218  0.59550021  0.66697168  1.0
  Cl  Cl6  1  0.71218209  0.07462584  0.24942800  1.0
  Cl  Cl7  1  0.58550691  0.44820862  0.94026701  1.0
