# generated using pymatgen
data_NaCl
_symmetry_space_group_name_H-M   'P 1'
_cell_length_a   5.21895159
_cell_length_b   6.26775806
_cell_length_c   7.38093903
_cell_angle_alpha   90.00000000
_cell_angle_beta   44.97120473
_cell_angle_gamma   90.00000000
_symmetry_Int_Tables_number   1
_chemical_formula_structural   NaCl
_chemical_formula_sum   'Na4 Cl4'
_cell_volume   170.63720876
_cell_formula_units_Z   4
loop_
 _symmetry_equiv_pos_site_id
 _symmetry_equiv_pos_as_xyz
  1  'x, y, z'
loop_
 _atom_site_type_symbol
 _atom_site_label
 _atom_site_symmetry_multiplicity
 _atom_site_fract_x
 _atom_site_fract_y
 _atom_site_fract_z
 _atom_site_occupancy
  Na  Na0  1  0.83116637  0.54339120  0.04063991  1.0
  Na  Na1  1  0.38283980  0.19571729  0.45947408  1.0
  Na  Na2  1  0.61107591  0.22116010  0.17021464  1.0
  Na  Na3  1  0.21636367  0.06582350  0.10215515  1.0
  Cl  Cl4  1  0.50129719  0.32358021  0.92171817  1.0
  Cl  Cl5  1  0.22385544  0.04803349  0.79509859  1.0
  Cl  Cl6  1  0.49983670  0.39188653  0.72347278  1.0
  Cl  Cl7  1  0.68924981  0.07074413  0.23486777  1.0
