# generated using pymatgen
data_NaCl
_symmetry_space_group_name_H-M   'P 1'
_cell_length_a   5.53286784
_cell_length_b   2.92649567
_cell_length_c   14.60023968
_cell_angle_alpha   90.00000000
_cell_angle_beta   45.95219976
_cell_angle_gamma   90.00000000
_symmetry_Int_Tables_number   1
_chemical_formula_structural   NaCl
_chemical_formula_sum   'Na4 Cl4'
_cell_volume   169.91905249
_cell_formula_units_Z   4
loop_
 _symmetry_equiv_pos_site_id
 _symmetry_equiv_pos_as_xyz
  1  'x, y, z'
loop_
 _atom_site_type_symbol
 _atom_site_label
 _atom_site_symmetry_multiplicity
 _atom_site_fract_x
 _atom_site_fract_y
 _atom_site_fract_z
 _atom_site_occupancy
  Na  Na0  1  0.45373416  0.48782707  0.54698430  1.0
  Na  Na1  1  0.89627493  0.74068239  0.70393959  1.0
  Na  Na2  1  0.71479553  0.94816773  0.06898421  1.0
  Na  Na3  1  0.06419059  0.01168658  0.89894286  1.0
  Cl  Cl4  1  0.35257265  0.72115805  0.97141148  1.0
  Cl  Cl5  1  0.96338845  0.06899958  0.42492248  1.0
  Cl  Cl6  1  0.61313904  0.95268057  0.52075023  1.0
  Cl  Cl7  1  0.42075930  0.04269937  0.88710242  1.0
