# generated using pymatgen
data_NaCl
_symmetry_space_group_name_H-M   'P 1'
_cell_length_a   6.91991711
_cell_length_b   13.49841703
_cell_length_c   10.58094906
_cell_angle_alpha   90.00000000
_cell_angle_beta   23.86802381
_cell_angle_gamma   90.00000000
_symmetry_Int_Tables_number   1
_chemical_formula_structural   NaCl
_chemical_formula_sum   'Na4 Cl4'
_cell_volume   399.91511481
_cell_formula_units_Z   4
loop_
 _symmetry_equiv_pos_site_id
 _symmetry_equiv_pos_as_xyz
  1  'x, y, z'
loop_
 _atom_site_type_symbol
 _atom_site_label
 _atom_site_symmetry_multiplicity
 _atom_site_fract_x
 _atom_site_fract_y
 _atom_site_fract_z
 _atom_site_occupancy
  Na  Na0  1  0.89289807  0.67541942  0.40545334  1.0
  Na  Na1  1  0.63753507  0.90418000  0.91167976  1.0
  Na  Na2  1  0.42184656  0.33951324  0.01818121  1.0
  Na  Na3  1  0.83857524  0.21393947  0.91343234  1.0
  Cl  Cl4  1  0.88308569  0.95760398  0.89693055  1.0
  Cl  Cl5  1  0.61299381  0.74572084  0.21302585  1.0
  Cl  Cl6  1  0.43200011  0.97550881  0.43193736  1.0
  Cl  Cl7  1  0.83947631  0.44034169  0.60521877  1.0
