# generated using pymatgen
data_NaCl
_symmetry_space_group_name_H-M   'P 1'
_cell_length_a   5.32577176
_cell_length_b   14.88106057
_cell_length_c   2.00682942
_cell_angle_alpha   90.00000000
_cell_angle_beta   90.00000000
_cell_angle_gamma   90.00000000
_symmetry_Int_Tables_number   1
_chemical_formula_structural   NaCl
_chemical_formula_sum   'Na4 Cl4'
_cell_volume   159.04751721
_cell_formula_units_Z   4
loop_
 _symmetry_equiv_pos_site_id
 _symmetry_equiv_pos_as_xyz
  1  'x, y, z'
loop_
 _atom_site_type_symbol
 _atom_site_label
 _atom_site_symmetry_multiplicity
 _atom_site_fract_x
 _atom_site_fract_y
 _atom_site_fract_z
 _atom_site_occupancy
  Na  Na0  1  0.88881309  0.66502070  0.46890864  1.0
  Na  Na1  1  0.47637507  0.12280909  0.63347547  1.0
  Na  Na2  1  0.91338313  0.11865792  0.51760561  1.0
  Na  Na3  1  0.41141129  0.70666152  0.02853356  1.0
  Cl  Cl4  1  0.88342677  0.94206627  0.93704030  1.0
  Cl  Cl5  1  0.67396903  0.19098165  0.26109131  1.0
  Cl  Cl6  1  0.95709460  0.49975870  0.01004374  1.0
  Cl  Cl7  1  0.45764181  0.97871282  0.00093419  1.0
