# generated using pymatgen
data_NaCl
_symmetry_space_group_name_H-M   'P 1'
_cell_length_a   4.95219495
_cell_length_b   5.22810351
_cell_length_c   15.12812711
_cell_angle_alpha   90.00000000
_cell_angle_beta   144.57679490
_cell_angle_gamma   90.00000000
_symmetry_Int_Tables_number   1
_chemical_formula_structural   NaCl
_chemical_formula_sum   'Na4 Cl4'
_cell_volume   227.01987811
_cell_formula_units_Z   4
loop_
 _symmetry_equiv_pos_site_id
 _symmetry_equiv_pos_as_xyz
  1  'x, y, z'
loop_
 _atom_site_type_symbol
 _atom_site_label
 _atom_site_symmetry_multiplicity
 _atom_site_fract_x
 _atom_site_fract_y
 _atom_site_fract_z
 _atom_site_occupancy
  Na  Na0  1  0.70863727  0.63075483  0.87586330  1.0
  Na  Na1  1  0.16248919  0.20985430  0.86311416  1.0
  Na  Na2  1  0.50056318  0.20473056  0.17651862  1.0
  Na  Na3  1  0.20391478  0.93256178  0.74626079  1.0
  Cl  Cl4  1  0.04017658  0.44667452  0.35232342  1.0
  Cl  Cl5  1  0.15017696  0.75601060  0.88031802  1.0
  Cl  Cl6  1  0.97237873  0.46117101  0.23350575  1.0
  Cl  Cl7  1  0.21708829  0.64486898  0.85728865  1.0
