# generated using pymatgen
data_NaCl
_symmetry_space_group_name_H-M   'P 1'
_cell_length_a   2.36549405
_cell_length_b   7.43423410
_cell_length_c   8.13255070
_cell_angle_alpha   90.00000000
_cell_angle_beta   90.00000000
_cell_angle_gamma   90.00000000
_symmetry_Int_Tables_number   1
_chemical_formula_structural   NaCl
_chemical_formula_sum   'Na4 Cl4'
_cell_volume   143.01608067
_cell_formula_units_Z   4
loop_
 _symmetry_equiv_pos_site_id
 _symmetry_equiv_pos_as_xyz
  1  'x, y, z'
loop_
 _atom_site_type_symbol
 _atom_site_label
 _atom_site_symmetry_multiplicity
 _atom_site_fract_x
 _atom_site_fract_y
 _atom_site_fract_z
 _atom_site_occupancy
  Na  Na0  1  0.95100014  0.62418489  0.43832335  1.0
  Na  Na1  1  0.89730784  0.29007235  0.84432774  1.0
  Na  Na2  1  0.58464475  0.14609369  0.02390288  1.0
  Na  Na3  1  0.71312420  0.70446743  0.70036252  1.0
  Cl  Cl4  1  0.23881578  0.68764440  0.88517641  1.0
  Cl  Cl5  1  0.99961979  0.56000504  0.21874845  1.0
  Cl  Cl6  1  0.16915391  0.41121482  0.42801108  1.0
  Cl  Cl7  1  0.70863012  0.42475559  0.85161436  1.0
