# generated using pymatgen
data_NaCl
_symmetry_space_group_name_H-M   'P 1'
_cell_length_a   8.07661915
_cell_length_b   11.83283901
_cell_length_c   3.24013326
_cell_angle_alpha   90.00000000
_cell_angle_beta   90.00000000
_cell_angle_gamma   90.00000000
_symmetry_Int_Tables_number   1
_chemical_formula_structural   NaCl
_chemical_formula_sum   'Na4 Cl4'
_cell_volume   309.65737821
_cell_formula_units_Z   4
loop_
 _symmetry_equiv_pos_site_id
 _symmetry_equiv_pos_as_xyz
  1  'x, y, z'
loop_
 _atom_site_type_symbol
 _atom_site_label
 _atom_site_symmetry_multiplicity
 _atom_site_fract_x
 _atom_site_fract_y
 _atom_site_fract_z
 _atom_site_occupancy
  Na  Na0  1  0.83694691  0.74774633  0.41353126  1.0
  Na  Na1  1  0.71813220  0.00680943  0.61177539  1.0
  Na  Na2  1  0.94946204  0.14384209  0.55591760  1.0
  Na  Na3  1  0.39692985  0.56390283  0.64627110  1.0
  Cl  Cl4  1  0.85180748  0.78880529  0.98023078  1.0
  Cl  Cl5  1  0.64479511  0.26302676  0.25388293  1.0
  Cl  Cl6  1  0.90682863  0.48700071  0.88661795  1.0
  Cl  Cl7  1  0.37613455  0.96118641  0.06765882  1.0
