# generated using pymatgen
data_NaCl
_symmetry_space_group_name_H-M   'P 1'
_cell_length_a   3.15207709
_cell_length_b   7.80242809
_cell_length_c   7.45935299
_cell_angle_alpha   90.00000000
_cell_angle_beta   77.78760224
_cell_angle_gamma   90.00000000
_symmetry_Int_Tables_number   1
_chemical_formula_structural   NaCl
_chemical_formula_sum   'Na4 Cl4'
_cell_volume   179.30270152
_cell_formula_units_Z   4
loop_
 _symmetry_equiv_pos_site_id
 _symmetry_equiv_pos_as_xyz
  1  'x, y, z'
loop_
 _atom_site_type_symbol
 _atom_site_label
 _atom_site_symmetry_multiplicity
 _atom_site_fract_x
 _atom_site_fract_y
 _atom_site_fract_z
 _atom_site_occupancy
  Na  Na0  1  0.84820517  0.70364844  0.38011189  1.0
  Na  Na1  1  0.18017930  0.23144585  0.58279103  1.0
  Na  Na2  1  0.96379027  0.93820110  0.49819445  1.0
  Na  Na3  1  0.76659509  0.43791299  0.59229609  1.0
  Cl  Cl4  1  0.18086020  0.93075618  0.98124547  1.0
  Cl  Cl5  1  0.30700322  0.15455737  0.10135558  1.0
  Cl  Cl6  1  0.76609205  0.61044942  0.49411178  1.0
  Cl  Cl7  1  0.59792976  0.21742066  0.81203377  1.0
