# generated using pymatgen
data_NaCl
_symmetry_space_group_name_H-M   'P 1'
_cell_length_a   4.04069851
_cell_length_b   2.58788617
_cell_length_c   9.25317581
_cell_angle_alpha   90.00000000
_cell_angle_beta   90.00000000
_cell_angle_gamma   90.00000000
_symmetry_Int_Tables_number   1
_chemical_formula_structural   NaCl
_chemical_formula_sum   'Na4 Cl4'
_cell_volume   96.75923609
_cell_formula_units_Z   4
loop_
 _symmetry_equiv_pos_site_id
 _symmetry_equiv_pos_as_xyz
  1  'x, y, z'
loop_
 _atom_site_type_symbol
 _atom_site_label
 _atom_site_symmetry_multiplicity
 _atom_site_fract_x
 _atom_site_fract_y
 _atom_site_fract_z
 _atom_site_occupancy
  Na  Na0  1  0.75802266  0.87977766  0.46275623  1.0
  Na  Na1  1  0.33468300  0.34874257  0.66032850  1.0
  Na  Na2  1  0.95581196  0.42032726  0.30329241  1.0
  Na  Na3  1  0.37327005  0.82990335  0.90839617  1.0
  Cl  Cl4  1  0.10264089  0.27422474  0.94406374  1.0
  Cl  Cl5  1  0.44941621  0.65528613  0.29896827  1.0
  Cl  Cl6  1  0.37033935  0.45434024  0.07157776  1.0
  Cl  Cl7  1  0.19826004  0.81575613  0.45837428  1.0
