# generated using pymatgen
data_NaCl
_symmetry_space_group_name_H-M   'P 1'
_cell_length_a   7.18887807
_cell_length_b   2.95933607
_cell_length_c   16.39212324
_cell_angle_alpha   90.00000000
_cell_angle_beta   61.69649244
_cell_angle_gamma   90.00000000
_symmetry_Int_Tables_number   1
_chemical_formula_structural   NaCl
_chemical_formula_sum   'Na4 Cl4'
_cell_volume   307.03966904
_cell_formula_units_Z   4
loop_
 _symmetry_equiv_pos_site_id
 _symmetry_equiv_pos_as_xyz
  1  'x, y, z'
loop_
 _atom_site_type_symbol
 _atom_site_label
 _atom_site_symmetry_multiplicity
 _atom_site_fract_x
 _atom_site_fract_y
 _atom_site_fract_z
 _atom_site_occupancy
  Na  Na0  1  0.81654840  0.62467011  0.01975141  1.0
  Na  Na1  1  0.76953762  0.37142386  0.13695519  1.0
  Na  Na2  1  0.07627480  0.71181874  0.06250886  1.0
  Na  Na3  1  0.80559515  0.38885318  0.53267922  1.0
  Cl  Cl4  1  0.30818937  0.63910222  0.86292050  1.0
  Cl  Cl5  1  0.42940675  0.39722081  0.24114048  1.0
  Cl  Cl6  1  0.90185527  0.92462190  0.37581548  1.0
  Cl  Cl7  1  0.09956614  0.64332344  0.77038855  1.0
