# generated using pymatgen
data_NaCl
_symmetry_space_group_name_H-M   'P 1'
_cell_length_a   8.49374922
_cell_length_b   2.85101005
_cell_length_c   13.88628540
_cell_angle_alpha   90.00000000
_cell_angle_beta   90.00000000
_cell_angle_gamma   90.00000000
_symmetry_Int_Tables_number   1
_chemical_formula_structural   NaCl
_chemical_formula_sum   'Na4 Cl4'
_cell_volume   336.26701548
_cell_formula_units_Z   4
loop_
 _symmetry_equiv_pos_site_id
 _symmetry_equiv_pos_as_xyz
  1  'x, y, z'
loop_
 _atom_site_type_symbol
 _atom_site_label
 _atom_site_symmetry_multiplicity
 _atom_site_fract_x
 _atom_site_fract_y
 _atom_site_fract_z
 _atom_site_occupancy
  Na  Na0  1  0.79392958  0.00000000  0.46077291  1.0
  Na  Na1  1  0.69059700  0.00000000  0.30197652  1.0
  Na  Na2  1  0.66693991  0.50000000  0.67456080  1.0
  Na  Na3  1  0.22918780  0.50000000  0.53943661  1.0
  Cl  Cl4  1  0.00000000  0.00000000  0.93456171  1.0
  Cl  Cl5  1  0.00000000  0.50000000  0.41499341  1.0
  Cl  Cl6  1  0.00000000  0.00000000  0.44567331  1.0
  Cl  Cl7  1  0.00000000  0.50000000  0.57075121  1.0
