# generated using pymatgen
data_NaCl
_symmetry_space_group_name_H-M   'P 1'
_cell_length_a   5.69087859
_cell_length_b   4.21638149
_cell_length_c   14.58326271
_cell_angle_alpha   90.00000000
_cell_angle_beta   90.00000000
_cell_angle_gamma   90.00000000
_symmetry_Int_Tables_number   1
_chemical_formula_structural   NaCl
_chemical_formula_sum   'Na4 Cl4'
_cell_volume   349.92415132
_cell_formula_units_Z   4
loop_
 _symmetry_equiv_pos_site_id
 _symmetry_equiv_pos_as_xyz
  1  'x, y, z'
loop_
 _atom_site_type_symbol
 _atom_site_label
 _atom_site_symmetry_multiplicity
 _atom_site_fract_x
 _atom_site_fract_y
 _atom_site_fract_z
 _atom_site_occupancy
  Na  Na0  1  0.00000000  0.80373974  0.29993730  1.0
  Na  Na1  1  0.00000000  0.32576317  0.71033179  1.0
  Na  Na2  1  0.50000000  0.41032743  0.01465489  1.0
  Na  Na3  1  0.50000000  0.70629374  0.61880204  1.0
  Cl  Cl4  1  0.00000000  0.56413197  0.65639263  1.0
  Cl  Cl5  1  0.00000000  0.35486890  0.47912091  1.0
  Cl  Cl6  1  0.50000000  0.33029175  0.19534901  1.0
  Cl  Cl7  1  0.50000000  0.86132595  0.93668427  1.0
