# generated using pymatgen
data_NaCl
_symmetry_space_group_name_H-M   'P 1'
_cell_length_a   6.16355441
_cell_length_b   6.16355441
_cell_length_c   2.48070875
_cell_angle_alpha   90.00000000
_cell_angle_beta   90.00000000
_cell_angle_gamma   90.00000000
_symmetry_Int_Tables_number   1
_chemical_formula_structural   NaCl
_chemical_formula_sum   'Na4 Cl4'
_cell_volume   94.24064434
_cell_formula_units_Z   4
loop_
 _symmetry_equiv_pos_site_id
 _symmetry_equiv_pos_as_xyz
  1  'x, y, z'
loop_
 _atom_site_type_symbol
 _atom_site_label
 _atom_site_symmetry_multiplicity
 _atom_site_fract_x
 _atom_site_fract_y
 _atom_site_fract_z
 _atom_site_occupancy
  Na  Na0  1  0.90308137  0.80878318  0.43662447  1.0
  Na  Na1  1  0.66491004  0.02217030  0.09373443  1.0
  Na  Na2  1  0.19261082  0.99121213  0.53050005  1.0
  Na  Na3  1  0.63963911  0.38312138  0.83466509  1.0
  Cl  Cl4  1  0.82232404  0.79532685  0.95980957  1.0
  Cl  Cl5  1  0.61935992  0.17093608  0.72153442  1.0
  Cl  Cl6  1  0.43235397  0.99408808  0.94531684  1.0
  Cl  Cl7  1  0.93199230  0.48382845  0.52895552  1.0
