# generated using pymatgen
data_NaCl
_symmetry_space_group_name_H-M   'P 1'
_cell_length_a   4.79322176
_cell_length_b   3.02125509
_cell_length_c   9.25304801
_cell_angle_alpha   90.00000000
_cell_angle_beta   90.00000000
_cell_angle_gamma   90.00000000
_symmetry_Int_Tables_number   1
_chemical_formula_structural   NaCl
_chemical_formula_sum   'Na4 Cl4'
_cell_volume   133.99843706
_cell_formula_units_Z   4
loop_
 _symmetry_equiv_pos_site_id
 _symmetry_equiv_pos_as_xyz
  1  'x, y, z'
loop_
 _atom_site_type_symbol
 _atom_site_label
 _atom_site_symmetry_multiplicity
 _atom_site_fract_x
 _atom_site_fract_y
 _atom_site_fract_z
 _atom_site_occupancy
  Na  Na0  1  0.81622673  0.00000000  0.07788842  1.0
  Na  Na1  1  0.86234049  0.00000000  0.56959261  1.0
  Na  Na2  1  0.51750758  0.50000000  0.00077296  1.0
  Na  Na3  1  0.67629092  0.50000000  0.12973376  1.0
  Cl  Cl4  1  0.00000000  0.50000000  0.94725139  1.0
  Cl  Cl5  1  0.50000000  0.00000000  0.43975540  1.0
  Cl  Cl6  1  0.00000000  0.50000000  0.46106705  1.0
  Cl  Cl7  1  0.50000000  0.00000000  0.27167135  1.0
