# generated using pymatgen
data_NaCl
_symmetry_space_group_name_H-M   'P 1'
_cell_length_a   3.42132334
_cell_length_b   5.57225808
_cell_length_c   12.92879813
_cell_angle_alpha   90.00000000
_cell_angle_beta   90.00000000
_cell_angle_gamma   90.00000000
_symmetry_Int_Tables_number   1
_chemical_formula_structural   NaCl
_chemical_formula_sum   'Na4 Cl4'
_cell_volume   246.48102832
_cell_formula_units_Z   4
loop_
 _symmetry_equiv_pos_site_id
 _symmetry_equiv_pos_as_xyz
  1  'x, y, z'
loop_
 _atom_site_type_symbol
 _atom_site_label
 _atom_site_symmetry_multiplicity
 _atom_site_fract_x
 _atom_site_fract_y
 _atom_site_fract_z
 _atom_site_occupancy
  Na  Na0  1  0.85057960  0.72758699  0.46139456  1.0
  Na  Na1  1  0.81773627  0.31270285  0.81211279  1.0
  Na  Na2  1  0.14361222  0.50087387  0.05847375  1.0
  Na  Na3  1  0.73056833  0.06451116  0.51952950  1.0
  Cl  Cl4  1  0.80864675  0.49572215  0.57700976  1.0
  Cl  Cl5  1  0.94944692  0.46668235  0.37930901  1.0
  Cl  Cl6  1  0.10796931  0.47862194  0.28020937  1.0
  Cl  Cl7  1  0.91885950  0.22779836  0.50016059  1.0
