# generated using pymatgen
data_NaCl
_symmetry_space_group_name_H-M   'P 1'
_cell_length_a   6.59160145
_cell_length_b   2.60187140
_cell_length_c   11.74271598
_cell_angle_alpha   90.00000000
_cell_angle_beta   38.20011676
_cell_angle_gamma   90.00000000
_symmetry_Int_Tables_number   1
_chemical_formula_structural   NaCl
_chemical_formula_sum   'Na4 Cl4'
_cell_volume   124.54371789
_cell_formula_units_Z   4
loop_
 _symmetry_equiv_pos_site_id
 _symmetry_equiv_pos_as_xyz
  1  'x, y, z'
loop_
 _atom_site_type_symbol
 _atom_site_label
 _atom_site_symmetry_multiplicity
 _atom_site_fract_x
 _atom_site_fract_y
 _atom_site_fract_z
 _atom_site_occupancy
  Na  Na0  1  0.67686058  0.62416014  0.65436159  1.0
  Na  Na1  1  0.33209368  0.32383414  0.75558028  1.0
  Na  Na2  1  0.03344885  0.42459206  0.00083090  1.0
  Na  Na3  1  0.49977204  0.00273919  0.56863942  1.0
  Cl  Cl4  1  0.28228198  0.69805291  0.61483138  1.0
  Cl  Cl5  1  0.20703899  0.40336746  0.32910858  1.0
  Cl  Cl6  1  0.12770708  0.38690723  0.22945967  1.0
  Cl  Cl7  1  0.12598888  0.68522688  0.76046086  1.0
