# generated using pymatgen
data_NaCl
_symmetry_space_group_name_H-M   'P 1'
_cell_length_a   3.49782949
_cell_length_b   12.32138209
_cell_length_c   6.94892305
_cell_angle_alpha   90.00000000
_cell_angle_beta   90.00000000
_cell_angle_gamma   90.00000000
_symmetry_Int_Tables_number   1
_chemical_formula_structural   NaCl
_chemical_formula_sum   'Na4 Cl4'
_cell_volume   299.48533625
_cell_formula_units_Z   4
loop_
 _symmetry_equiv_pos_site_id
 _symmetry_equiv_pos_as_xyz
  1  'x, y, z'
loop_
 _atom_site_type_symbol
 _atom_site_label
 _atom_site_symmetry_multiplicity
 _atom_site_fract_x
 _atom_site_fract_y
 _atom_site_fract_z
 _atom_site_occupancy
  Na  Na0  1  0.00000000  0.61568986  0.25000000  1.0
  Na  Na1  1  0.00000000  0.02541829  0.75000000  1.0
  Na  Na2  1  0.00000000  0.96642922  0.25000000  1.0
  Na  Na3  1  0.00000000  0.20062229  0.75000000  1.0
  Cl  Cl4  1  0.97686726  0.80976599  0.86849047  1.0
  Cl  Cl5  1  0.86739797  0.65347442  0.90710892  1.0
  Cl  Cl6  1  0.46392366  0.86538809  0.89313752  1.0
  Cl  Cl7  1  0.82524701  0.33925933  0.79986954  1.0
