# generated using pymatgen
data_NaCl
_symmetry_space_group_name_H-M   'P 1'
_cell_length_a   5.42614630
_cell_length_b   5.42614630
_cell_length_c   10.99396667
_cell_angle_alpha   90.00000000
_cell_angle_beta   90.00000000
_cell_angle_gamma   90.00000000
_symmetry_Int_Tables_number   1
_chemical_formula_structural   NaCl
_chemical_formula_sum   'Na4 Cl4'
_cell_volume   323.69606064
_cell_formula_units_Z   4
loop_
 _symmetry_equiv_pos_site_id
 _symmetry_equiv_pos_as_xyz
  1  'x, y, z'
loop_
 _atom_site_type_symbol
 _atom_site_label
 _atom_site_symmetry_multiplicity
 _atom_site_fract_x
 _atom_site_fract_y
 _atom_site_fract_z
 _atom_site_occupancy
  Na  Na0  1  0.92779133  0.67805769  0.29051319  1.0
  Na  Na1  1  0.81134710  0.04574773  0.71200334  1.0
  Na  Na2  1  0.12321954  0.16676792  0.43622009  1.0
  Na  Na3  1  0.70895946  0.12116736  0.86446693  1.0
  Cl  Cl4  1  0.99893610  0.70410135  0.80224171  1.0
  Cl  Cl5  1  0.78304228  0.61348472  0.93882548  1.0
  Cl  Cl6  1  0.22853686  0.52372148  0.96129235  1.0
  Cl  Cl7  1  0.65621608  0.16678589  0.02685724  1.0
