# generated using pymatgen
data_NaCl
_symmetry_space_group_name_H-M   'P 1'
_cell_length_a   4.14829167
_cell_length_b   4.14829167
_cell_length_c   11.52025916
_cell_angle_alpha   90.00000000
_cell_angle_beta   90.00000000
_cell_angle_gamma   90.00000000
_symmetry_Int_Tables_number   1
_chemical_formula_structural   NaCl
_chemical_formula_sum   'Na4 Cl4'
_cell_volume   198.24434965
_cell_formula_units_Z   4
loop_
 _symmetry_equiv_pos_site_id
 _symmetry_equiv_pos_as_xyz
  1  'x, y, z'
loop_
 _atom_site_type_symbol
 _atom_site_label
 _atom_site_symmetry_multiplicity
 _atom_site_fract_x
 _atom_site_fract_y
 _atom_site_fract_z
 _atom_site_occupancy
  Na  Na0  1  0.00000000  0.69463418  0.00000000  1.0
  Na  Na1  1  0.00000000  0.37917462  0.50000000  1.0
  Na  Na2  1  0.03304688  0.00000000  0.25000000  1.0
  Na  Na3  1  0.54711001  0.00000000  0.75000000  1.0
  Cl  Cl4  1  0.90542884  0.90542884  0.37500000  1.0
  Cl  Cl5  1  0.63344159  0.63344159  0.87500000  1.0
  Cl  Cl6  1  0.32171889  0.67828111  0.62500000  1.0
  Cl  Cl7  1  0.51007113  0.48992887  0.12500000  1.0
