# generated using pymatgen
data_NaCl
_symmetry_space_group_name_H-M   'P 1'
_cell_length_a   6.95922785
_cell_length_b   10.64422092
_cell_length_c   13.00993376
_cell_angle_alpha   90.00000000
_cell_angle_beta   20.02654400
_cell_angle_gamma   90.00000000
_symmetry_Int_Tables_number   1
_chemical_formula_structural   NaCl
_chemical_formula_sum   'Na4 Cl4'
_cell_volume   330.03051722
_cell_formula_units_Z   4
loop_
 _symmetry_equiv_pos_site_id
 _symmetry_equiv_pos_as_xyz
  1  'x, y, z'
loop_
 _atom_site_type_symbol
 _atom_site_label
 _atom_site_symmetry_multiplicity
 _atom_site_fract_x
 _atom_site_fract_y
 _atom_site_fract_z
 _atom_site_occupancy
  Na  Na0  1  0.91457282  0.68574555  0.42874711  1.0
  Na  Na1  1  0.32426208  0.16924152  0.70002891  1.0
  Na  Na2  1  0.59407798  0.31684123  0.00053012  1.0
  Na  Na3  1  0.25102634  0.89264095  0.50047554  1.0
  Cl  Cl4  1  0.14760261  0.91498429  0.96844673  1.0
  Cl  Cl5  1  0.43556396  0.21192827  0.21653373  1.0
  Cl  Cl6  1  0.29547614  0.11739004  0.52037947  1.0
  Cl  Cl7  1  0.04886172  0.57067818  0.85597242  1.0
