# generated using pymatgen
data_NaCl
_symmetry_space_group_name_H-M   'P 1'
_cell_length_a   6.04692943
_cell_length_b   13.95617046
_cell_length_c   2.61529211
_cell_angle_alpha   90.00000000
_cell_angle_beta   38.56406136
_cell_angle_gamma   90.00000000
_symmetry_Int_Tables_number   1
_chemical_formula_structural   NaCl
_chemical_formula_sum   'Na4 Cl4'
_cell_volume   137.58804188
_cell_formula_units_Z   4
loop_
 _symmetry_equiv_pos_site_id
 _symmetry_equiv_pos_as_xyz
  1  'x, y, z'
loop_
 _atom_site_type_symbol
 _atom_site_label
 _atom_site_symmetry_multiplicity
 _atom_site_fract_x
 _atom_site_fract_y
 _atom_site_fract_z
 _atom_site_occupancy
  Na  Na0  1  0.96088923  0.63553561  0.29813037  1.0
  Na  Na1  1  0.65064161  0.39279225  0.13912423  1.0
  Na  Na2  1  0.01616865  0.89942750  0.09298641  1.0
  Na  Na3  1  0.23689331  0.18332975  0.86919465  1.0
  Cl  Cl4  1  0.82666897  0.92610968  0.91786678  1.0
  Cl  Cl5  1  0.82110558  0.29893191  0.38024957  1.0
  Cl  Cl6  1  0.80040446  0.53233258  0.51259948  1.0
  Cl  Cl7  1  0.46333514  0.18482398  0.73447424  1.0
