# generated using pymatgen
data_NaCl
_symmetry_space_group_name_H-M   'P 1'
_cell_length_a   4.19101603
_cell_length_b   12.30903312
_cell_length_c   4.56259077
_cell_angle_alpha   90.00000000
_cell_angle_beta   90.00000000
_cell_angle_gamma   90.00000000
_symmetry_Int_Tables_number   1
_chemical_formula_structural   NaCl
_chemical_formula_sum   'Na4 Cl4'
_cell_volume   235.37199032
_cell_formula_units_Z   4
loop_
 _symmetry_equiv_pos_site_id
 _symmetry_equiv_pos_as_xyz
  1  'x, y, z'
loop_
 _atom_site_type_symbol
 _atom_site_label
 _atom_site_symmetry_multiplicity
 _atom_site_fract_x
 _atom_site_fract_y
 _atom_site_fract_z
 _atom_site_occupancy
  Na  Na0  1  0.92799607  0.67424442  0.46114852  1.0
  Na  Na1  1  0.67540064  0.03123748  0.67241208  1.0
  Na  Na2  1  0.41491815  0.72175275  0.06496491  1.0
  Na  Na3  1  0.79317515  0.15965482  0.62898575  1.0
  Cl  Cl4  1  0.92714209  0.88085250  0.99908835  1.0
  Cl  Cl5  1  0.65632892  0.29263407  0.15988443  1.0
  Cl  Cl6  1  0.19630356  0.98882819  0.44250712  1.0
  Cl  Cl7  1  0.50359389  0.30716042  0.50124760  1.0
