# generated using pymatgen
data_NaCl
_symmetry_space_group_name_H-M   'P 1'
_cell_length_a   6.43643736
_cell_length_b   6.43643736
_cell_length_c   6.43643736
_cell_angle_alpha   90.00000000
_cell_angle_beta   90.00000000
_cell_angle_gamma   90.00000000
_symmetry_Int_Tables_number   1
_chemical_formula_structural   NaCl
_chemical_formula_sum   'Na4 Cl4'
_cell_volume   266.64696265
_cell_formula_units_Z   4
loop_
 _symmetry_equiv_pos_site_id
 _symmetry_equiv_pos_as_xyz
  1  'x, y, z'
loop_
 _atom_site_type_symbol
 _atom_site_label
 _atom_site_symmetry_multiplicity
 _atom_site_fract_x
 _atom_site_fract_y
 _atom_site_fract_z
 _atom_site_occupancy
  Na  Na0  1  0.57833372  0.57833372  0.57833372  1.0
  Na  Na1  1  0.91973365  0.41973365  0.08026635  1.0
  Na  Na2  1  0.53744488  0.96255512  0.03744488  1.0
  Na  Na3  1  0.81807020  0.18192980  0.68192980  1.0
  Cl  Cl4  1  0.30684813  0.30684813  0.30684813  1.0
  Cl  Cl5  1  0.43117383  0.93117383  0.56882617  1.0
  Cl  Cl6  1  0.42324651  0.07675349  0.92324651  1.0
  Cl  Cl7  1  0.64777155  0.35222845  0.85222845  1.0
