# generated using pymatgen
data_NaCl
_symmetry_space_group_name_H-M   'P 1'
_cell_length_a   5.74946523
_cell_length_b   5.74946523
_cell_length_c   5.74946523
_cell_angle_alpha   90.00000000
_cell_angle_beta   90.00000000
_cell_angle_gamma   90.00000000
_symmetry_Int_Tables_number   1
_chemical_formula_structural   NaCl
_chemical_formula_sum   'Na4 Cl4'
_cell_volume   190.05633743
_cell_formula_units_Z   4
loop_
 _symmetry_equiv_pos_site_id
 _symmetry_equiv_pos_as_xyz
  1  'x, y, z'
loop_
 _atom_site_type_symbol
 _atom_site_label
 _atom_site_symmetry_multiplicity
 _atom_site_fract_x
 _atom_site_fract_y
 _atom_site_fract_z
 _atom_site_occupancy
  Na  Na0  1  0.44206169  0.44206169  0.44206169  1.0
  Na  Na1  1  0.84220794  0.34220794  0.15779206  1.0
  Na  Na2  1  0.36607513  0.13392487  0.86607513  1.0
  Na  Na3  1  0.14992494  0.85007506  0.35007506  1.0
  Cl  Cl4  1  0.06490924  0.06490924  0.06490924  1.0
  Cl  Cl5  1  0.35234707  0.85234707  0.64765293  1.0
  Cl  Cl6  1  0.49693717  0.00306283  0.99693717  1.0
  Cl  Cl7  1  0.81412769  0.18587231  0.68587231  1.0
