# generated using pymatgen
data_NaCl
_symmetry_space_group_name_H-M   'P 1'
_cell_length_a   6.89352708
_cell_length_b   6.89352708
_cell_length_c   6.89352708
_cell_angle_alpha   90.00000000
_cell_angle_beta   90.00000000
_cell_angle_gamma   90.00000000
_symmetry_Int_Tables_number   1
_chemical_formula_structural   NaCl
_chemical_formula_sum   'Na4 Cl4'
_cell_volume   327.58533987
_cell_formula_units_Z   4
loop_
 _symmetry_equiv_pos_site_id
 _symmetry_equiv_pos_as_xyz
  1  'x, y, z'
loop_
 _atom_site_type_symbol
 _atom_site_label
 _atom_site_symmetry_multiplicity
 _atom_site_fract_x
 _atom_site_fract_y
 _atom_site_fract_z
 _atom_site_occupancy
  Na  Na0  1  0.46442614  0.46442614  0.46442614  1.0
  Na  Na1  1  0.81546507  0.31546507  0.18453493  1.0
  Na  Na2  1  0.57441469  0.92558531  0.07441469  1.0
  Na  Na3  1  0.19147618  0.80852382  0.30852382  1.0
  Cl  Cl4  1  0.55623578  0.55623578  0.55623578  1.0
  Cl  Cl5  1  0.41708488  0.91708488  0.58291512  1.0
  Cl  Cl6  1  0.88966558  0.61033442  0.38966558  1.0
  Cl  Cl7  1  0.70061820  0.29938180  0.79938180  1.0
