# generated using pymatgen
data_NaCl
_symmetry_space_group_name_H-M   'P 1'
_cell_length_a   3.05913477
_cell_length_b   4.39696246
_cell_length_c   25.44943588
_cell_angle_alpha   90.00000000
_cell_angle_beta   90.00000000
_cell_angle_gamma   90.00000000
_symmetry_Int_Tables_number   1
_chemical_formula_structural   NaCl
_chemical_formula_sum   'Na4 Cl4'
_cell_volume   342.31783601
_cell_formula_units_Z   4
loop_
 _symmetry_equiv_pos_site_id
 _symmetry_equiv_pos_as_xyz
  1  'x, y, z'
loop_
 _atom_site_type_symbol
 _atom_site_label
 _atom_site_symmetry_multiplicity
 _atom_site_fract_x
 _atom_site_fract_y
 _atom_site_fract_z
 _atom_site_occupancy
  Na  Na0  1  0.64399713  0.50000000  0.57650455  1.0
  Na  Na1  1  0.06008410  0.50000000  0.73497439  1.0
  Na  Na2  1  0.52866843  0.50000000  0.89722319  1.0
  Na  Na3  1  0.77716090  0.50000000  0.40576270  1.0
  Cl  Cl4  1  0.35463285  0.00000000  0.82913754  1.0
  Cl  Cl5  1  0.42167304  0.00000000  0.11460662  1.0
  Cl  Cl6  1  0.51544315  0.00000000  0.37797921  1.0
  Cl  Cl7  1  0.63451581  0.00000000  0.93715581  1.0
