# generated using pymatgen
data_NaCl
_symmetry_space_group_name_H-M   'P 1'
_cell_length_a   4.61490983
_cell_length_b   8.11236896
_cell_length_c   15.55677058
_cell_angle_alpha   90.00000000
_cell_angle_beta   153.43513023
_cell_angle_gamma   90.00000000
_symmetry_Int_Tables_number   1
_chemical_formula_structural   NaCl
_chemical_formula_sum   'Na4 Cl4'
_cell_volume   260.46094344
_cell_formula_units_Z   4
loop_
 _symmetry_equiv_pos_site_id
 _symmetry_equiv_pos_as_xyz
  1  'x, y, z'
loop_
 _atom_site_type_symbol
 _atom_site_label
 _atom_site_symmetry_multiplicity
 _atom_site_fract_x
 _atom_site_fract_y
 _atom_site_fract_z
 _atom_site_occupancy
  Na  Na0  1  0.48802806  0.24746397  0.63805983  1.0
  Na  Na1  1  0.31822312  0.88789872  0.93019996  1.0
  Na  Na2  1  0.39730282  0.14297408  0.99882237  1.0
  Na  Na3  1  0.22713551  0.37510242  0.05990014  1.0
  Cl  Cl4  1  0.05066040  0.13193865  0.85143240  1.0
  Cl  Cl5  1  0.87986625  0.84916961  0.39506585  1.0
  Cl  Cl6  1  0.46411689  0.07820954  0.52243141  1.0
  Cl  Cl7  1  0.15261686  0.52621274  0.53483429  1.0
