# generated using pymatgen
data_NaCl
_symmetry_space_group_name_H-M   'P 1'
_cell_length_a   7.73665669
_cell_length_b   7.73665669
_cell_length_c   4.91134721
_cell_angle_alpha   90.00000000
_cell_angle_beta   90.00000000
_cell_angle_gamma   90.00000000
_symmetry_Int_Tables_number   1
_chemical_formula_structural   NaCl
_chemical_formula_sum   'Na4 Cl4'
_cell_volume   293.97289500
_cell_formula_units_Z   4
loop_
 _symmetry_equiv_pos_site_id
 _symmetry_equiv_pos_as_xyz
  1  'x, y, z'
loop_
 _atom_site_type_symbol
 _atom_site_label
 _atom_site_symmetry_multiplicity
 _atom_site_fract_x
 _atom_site_fract_y
 _atom_site_fract_z
 _atom_site_occupancy
  Na  Na0  1  0.24367877  0.32600909  0.67769565  1.0
  Na  Na1  1  0.46495566  0.11042252  0.25436478  1.0
  Na  Na2  1  0.07854856  0.60869343  0.88751608  1.0
  Na  Na3  1  0.86594166  0.44599517  0.69560441  1.0
  Cl  Cl4  1  0.35762487  0.09487204  0.61903459  1.0
  Cl  Cl5  1  0.96277961  0.06701029  0.71156169  1.0
  Cl  Cl6  1  0.14472191  0.75541434  0.22680814  1.0
  Cl  Cl7  1  0.00072616  0.65858212  0.69770737  1.0
