# generated using pymatgen
data_NaCl
_symmetry_space_group_name_H-M   'P 1'
_cell_length_a   4.47984329
_cell_length_b   4.47984329
_cell_length_c   15.26080229
_cell_angle_alpha   90.00000000
_cell_angle_beta   90.00000000
_cell_angle_gamma   90.00000000
_symmetry_Int_Tables_number   1
_chemical_formula_structural   NaCl
_chemical_formula_sum   'Na4 Cl4'
_cell_volume   306.26897863
_cell_formula_units_Z   4
loop_
 _symmetry_equiv_pos_site_id
 _symmetry_equiv_pos_as_xyz
  1  'x, y, z'
loop_
 _atom_site_type_symbol
 _atom_site_label
 _atom_site_symmetry_multiplicity
 _atom_site_fract_x
 _atom_site_fract_y
 _atom_site_fract_z
 _atom_site_occupancy
  Na  Na0  1  0.91068288  0.50000000  0.85068686  1.0
  Na  Na1  1  0.95750890  0.50000000  0.46798186  1.0
  Na  Na2  1  0.50000000  0.54574086  0.86772649  1.0
  Na  Na3  1  0.50000000  0.54742694  0.26781740  1.0
  Cl  Cl4  1  0.59006396  0.00000000  0.32519252  1.0
  Cl  Cl5  1  0.69871404  0.00000000  0.97900933  1.0
  Cl  Cl6  1  0.00000000  0.36529194  0.32450880  1.0
  Cl  Cl7  1  0.00000000  0.83004978  0.46700226  1.0
