# generated using pymatgen
data_NaCl
_symmetry_space_group_name_H-M   'P 1'
_cell_length_a   3.17036115
_cell_length_b   3.17036115
_cell_length_c   16.51041189
_cell_angle_alpha   90.00000000
_cell_angle_beta   90.00000000
_cell_angle_gamma   90.00000000
_symmetry_Int_Tables_number   1
_chemical_formula_structural   NaCl
_chemical_formula_sum   'Na4 Cl4'
_cell_volume   165.94928394
_cell_formula_units_Z   4
loop_
 _symmetry_equiv_pos_site_id
 _symmetry_equiv_pos_as_xyz
  1  'x, y, z'
loop_
 _atom_site_type_symbol
 _atom_site_label
 _atom_site_symmetry_multiplicity
 _atom_site_fract_x
 _atom_site_fract_y
 _atom_site_fract_z
 _atom_site_occupancy
  Na  Na0  1  0.53766338  0.53766338  0.00000000  1.0
  Na  Na1  1  0.99980969  0.99980969  0.50000000  1.0
  Na  Na2  1  0.08199410  0.91800590  0.75000000  1.0
  Na  Na3  1  0.82142074  0.17857926  0.25000000  1.0
  Cl  Cl4  1  0.05493960  0.05493960  0.00000000  1.0
  Cl  Cl5  1  0.70740582  0.70740582  0.50000000  1.0
  Cl  Cl6  1  0.38653592  0.61346408  0.75000000  1.0
  Cl  Cl7  1  0.55163479  0.44836521  0.25000000  1.0
