# generated using pymatgen
data_NaCl
_symmetry_space_group_name_H-M   'P 1'
_cell_length_a   3.34041730
_cell_length_b   3.34041730
_cell_length_c   14.44294623
_cell_angle_alpha   90.00000000
_cell_angle_beta   90.00000000
_cell_angle_gamma   90.00000000
_symmetry_Int_Tables_number   1
_chemical_formula_structural   NaCl
_chemical_formula_sum   'Na4 Cl4'
_cell_volume   161.15999412
_cell_formula_units_Z   4
loop_
 _symmetry_equiv_pos_site_id
 _symmetry_equiv_pos_as_xyz
  1  'x, y, z'
loop_
 _atom_site_type_symbol
 _atom_site_label
 _atom_site_symmetry_multiplicity
 _atom_site_fract_x
 _atom_site_fract_y
 _atom_site_fract_z
 _atom_site_occupancy
  Na  Na0  1  0.96801321  0.14977103  0.91551481  1.0
  Na  Na1  1  0.48494855  0.12401660  0.22422266  1.0
  Na  Na2  1  0.71213507  0.37201447  0.74594277  1.0
  Na  Na3  1  0.54065236  0.35520296  0.46886099  1.0
  Cl  Cl4  1  0.00000000  0.00000000  0.17112374  1.0
  Cl  Cl5  1  0.00000000  0.00000000  0.08335246  1.0
  Cl  Cl6  1  0.00000000  0.50000000  0.88683665  1.0
  Cl  Cl7  1  0.50000000  0.00000000  0.90020890  1.0
