# generated using pymatgen
data_NaCl
_symmetry_space_group_name_H-M   'P 1'
_cell_length_a   5.04250588
_cell_length_b   5.04250588
_cell_length_c   12.30066156
_cell_angle_alpha   90.00000000
_cell_angle_beta   90.00000000
_cell_angle_gamma   90.00000000
_symmetry_Int_Tables_number   1
_chemical_formula_structural   NaCl
_chemical_formula_sum   'Na4 Cl4'
_cell_volume   312.76726766
_cell_formula_units_Z   4
loop_
 _symmetry_equiv_pos_site_id
 _symmetry_equiv_pos_as_xyz
  1  'x, y, z'
loop_
 _atom_site_type_symbol
 _atom_site_label
 _atom_site_symmetry_multiplicity
 _atom_site_fract_x
 _atom_site_fract_y
 _atom_site_fract_z
 _atom_site_occupancy
  Na  Na0  1  0.96143485  0.56357278  0.34517522  1.0
  Na  Na1  1  0.95095476  0.08667093  0.00043250  1.0
  Na  Na2  1  0.67675910  0.48499315  0.28853616  1.0
  Na  Na3  1  0.42332316  0.63192228  0.00761815  1.0
  Cl  Cl4  1  0.03424032  0.48940288  0.43200066  1.0
  Cl  Cl5  1  0.69177648  0.42684601  0.45997177  1.0
  Cl  Cl6  1  0.74328406  0.26647324  0.62771776  1.0
  Cl  Cl7  1  0.58467936  0.82146820  0.16032436  1.0
