# generated using pymatgen
data_NaCl
_symmetry_space_group_name_H-M   'P 1'
_cell_length_a   5.13430507
_cell_length_b   5.13430507
_cell_length_c   11.73303105
_cell_angle_alpha   90.00000000
_cell_angle_beta   90.00000000
_cell_angle_gamma   90.00000000
_symmetry_Int_Tables_number   1
_chemical_formula_structural   NaCl
_chemical_formula_sum   'Na4 Cl4'
_cell_volume   309.29547049
_cell_formula_units_Z   4
loop_
 _symmetry_equiv_pos_site_id
 _symmetry_equiv_pos_as_xyz
  1  'x, y, z'
loop_
 _atom_site_type_symbol
 _atom_site_label
 _atom_site_symmetry_multiplicity
 _atom_site_fract_x
 _atom_site_fract_y
 _atom_site_fract_z
 _atom_site_occupancy
  Na  Na0  1  0.78094656  0.78094656  0.92962739  1.0
  Na  Na1  1  0.97988913  0.97988913  0.74890346  1.0
  Na  Na2  1  0.60985525  0.39014475  0.06042053  1.0
  Na  Na3  1  0.05707124  0.94292876  0.11127102  1.0
  Cl  Cl4  1  0.60085611  0.60085611  0.37125584  1.0
  Cl  Cl5  1  0.80230025  0.80230025  0.79662928  1.0
  Cl  Cl6  1  0.32212289  0.67787711  0.39460331  1.0
  Cl  Cl7  1  0.74043727  0.25956273  0.46007374  1.0
