# generated using pymatgen
data_NaCl
_symmetry_space_group_name_H-M   'P 1'
_cell_length_a   6.16384694
_cell_length_b   6.16384694
_cell_length_c   6.16384694
_cell_angle_alpha   90.00000000
_cell_angle_beta   90.00000000
_cell_angle_gamma   90.00000000
_symmetry_Int_Tables_number   1
_chemical_formula_structural   NaCl
_chemical_formula_sum   'Na4 Cl4'
_cell_volume   234.18309288
_cell_formula_units_Z   4
loop_
 _symmetry_equiv_pos_site_id
 _symmetry_equiv_pos_as_xyz
  1  'x, y, z'
loop_
 _atom_site_type_symbol
 _atom_site_label
 _atom_site_symmetry_multiplicity
 _atom_site_fract_x
 _atom_site_fract_y
 _atom_site_fract_z
 _atom_site_occupancy
  Na  Na0  1  0.98226910  0.98226910  0.98226910  1.0
  Na  Na1  1  0.49997658  0.99997658  0.50002342  1.0
  Na  Na2  1  0.36041537  0.13958463  0.86041537  1.0
  Na  Na3  1  0.97913415  0.02086585  0.52086585  1.0
  Cl  Cl4  1  0.34576443  0.34576443  0.34576443  1.0
  Cl  Cl5  1  0.20075102  0.70075102  0.79924898  1.0
  Cl  Cl6  1  0.90696074  0.59303926  0.40696074  1.0
  Cl  Cl7  1  0.65058066  0.34941934  0.84941934  1.0
