# generated using pymatgen
data_NaCl
_symmetry_space_group_name_H-M   'P 1'
_cell_length_a   5.17094354
_cell_length_b   11.00935936
_cell_length_c   16.47466762
_cell_angle_alpha   90.00000000
_cell_angle_beta   24.62604875
_cell_angle_gamma   90.00000000
_symmetry_Int_Tables_number   1
_chemical_formula_structural   NaCl
_chemical_formula_sum   'Na4 Cl4'
_cell_volume   390.81018948
_cell_formula_units_Z   4
loop_
 _symmetry_equiv_pos_site_id
 _symmetry_equiv_pos_as_xyz
  1  'x, y, z'
loop_
 _atom_site_type_symbol
 _atom_site_label
 _atom_site_symmetry_multiplicity
 _atom_site_fract_x
 _atom_site_fract_y
 _atom_site_fract_z
 _atom_site_occupancy
  Na  Na0  1  0.87475534  0.12161590  0.82737338  1.0
  Na  Na1  1  0.95965888  0.48445400  0.62911059  1.0
  Na  Na2  1  0.84585435  0.08513090  0.09578950  1.0
  Na  Na3  1  0.27842381  0.18656729  0.48068449  1.0
  Cl  Cl4  1  0.06057555  0.84200130  0.46105870  1.0
  Cl  Cl5  1  0.46051707  0.87276732  0.12835303  1.0
  Cl  Cl6  1  0.03446489  0.24045596  0.84105362  1.0
  Cl  Cl7  1  0.97661513  0.17187128  0.35349582  1.0
