# generated using pymatgen
data_NaCl
_symmetry_space_group_name_H-M   'P 1'
_cell_length_a   4.47702718
_cell_length_b   4.47702718
_cell_length_c   12.16589620
_cell_angle_alpha   90.00000000
_cell_angle_beta   90.00000000
_cell_angle_gamma   90.00000000
_symmetry_Int_Tables_number   1
_chemical_formula_structural   NaCl
_chemical_formula_sum   'Na4 Cl4'
_cell_volume   243.85045412
_cell_formula_units_Z   4
loop_
 _symmetry_equiv_pos_site_id
 _symmetry_equiv_pos_as_xyz
  1  'x, y, z'
loop_
 _atom_site_type_symbol
 _atom_site_label
 _atom_site_symmetry_multiplicity
 _atom_site_fract_x
 _atom_site_fract_y
 _atom_site_fract_z
 _atom_site_occupancy
  Na  Na0  1  0.95842619  0.95842619  0.37500000  1.0
  Na  Na1  1  0.33606324  0.33606324  0.87500000  1.0
  Na  Na2  1  0.61281227  0.38718773  0.62500000  1.0
  Na  Na3  1  0.50082871  0.49917129  0.12500000  1.0
  Cl  Cl4  1  0.50000000  0.71793723  0.00000000  1.0
  Cl  Cl5  1  0.50000000  0.57400133  0.50000000  1.0
  Cl  Cl6  1  0.77896562  0.50000000  0.25000000  1.0
  Cl  Cl7  1  0.27460521  0.50000000  0.75000000  1.0
