# generated using pymatgen
data_NaCl
_symmetry_space_group_name_H-M   'P 1'
_cell_length_a   5.34357960
_cell_length_b   5.34357960
_cell_length_c   12.87763270
_cell_angle_alpha   90.00000000
_cell_angle_beta   90.00000000
_cell_angle_gamma   120.00000000
_symmetry_Int_Tables_number   1
_chemical_formula_structural   NaCl
_chemical_formula_sum   'Na4 Cl4'
_cell_volume   318.44265189
_cell_formula_units_Z   4
loop_
 _symmetry_equiv_pos_site_id
 _symmetry_equiv_pos_as_xyz
  1  'x, y, z'
loop_
 _atom_site_type_symbol
 _atom_site_label
 _atom_site_symmetry_multiplicity
 _atom_site_fract_x
 _atom_site_fract_y
 _atom_site_fract_z
 _atom_site_occupancy
  Na  Na0  1  0.33333333  0.66666667  0.79408058  1.0
  Na  Na1  1  0.00036053  0.81513321  0.48225767  1.0
  Na  Na2  1  0.29233502  0.60236411  0.36366372  1.0
  Na  Na3  1  0.88842207  0.49533100  0.68500654  1.0
  Cl  Cl4  1  0.00000000  0.00000000  0.24304761  1.0
  Cl  Cl5  1  0.37560939  0.28274279  0.84337770  1.0
  Cl  Cl6  1  0.66952110  0.84676965  0.86267262  1.0
  Cl  Cl7  1  0.54950605  0.82879271  0.61022363  1.0
