# generated using pymatgen
data_NaCl
_symmetry_space_group_name_H-M   'P 1'
_cell_length_a   4.91242941
_cell_length_b   4.91242941
_cell_length_c   4.91242941
_cell_angle_alpha   90.00000000
_cell_angle_beta   90.00000000
_cell_angle_gamma   90.00000000
_symmetry_Int_Tables_number   1
_chemical_formula_structural   NaCl
_chemical_formula_sum   'Na4 Cl4'
_cell_volume   118.54656333
_cell_formula_units_Z   4
loop_
 _symmetry_equiv_pos_site_id
 _symmetry_equiv_pos_as_xyz
  1  'x, y, z'
loop_
 _atom_site_type_symbol
 _atom_site_label
 _atom_site_symmetry_multiplicity
 _atom_site_fract_x
 _atom_site_fract_y
 _atom_site_fract_z
 _atom_site_occupancy
  Na  Na0  1  0.99927237  0.99927237  0.99927237  1.0
  Na  Na1  1  0.48256026  0.98256026  0.51743974  1.0
  Na  Na2  1  0.17799753  0.32200247  0.67799753  1.0
  Na  Na3  1  0.92385123  0.07614877  0.57614877  1.0
  Cl  Cl4  1  0.54196364  0.54196364  0.54196364  1.0
  Cl  Cl5  1  0.12982226  0.62982226  0.87017774  1.0
  Cl  Cl6  1  0.74647073  0.75352927  0.24647073  1.0
  Cl  Cl7  1  0.57392194  0.42607806  0.92607806  1.0
