# generated using pymatgen
data_NaCl
_symmetry_space_group_name_H-M   'P 1'
_cell_length_a   4.58824651
_cell_length_b   4.58824651
_cell_length_c   16.05200789
_cell_angle_alpha   90.00000000
_cell_angle_beta   90.00000000
_cell_angle_gamma   90.00000000
_symmetry_Int_Tables_number   1
_chemical_formula_structural   NaCl
_chemical_formula_sum   'Na4 Cl4'
_cell_volume   337.92696700
_cell_formula_units_Z   4
loop_
 _symmetry_equiv_pos_site_id
 _symmetry_equiv_pos_as_xyz
  1  'x, y, z'
loop_
 _atom_site_type_symbol
 _atom_site_label
 _atom_site_symmetry_multiplicity
 _atom_site_fract_x
 _atom_site_fract_y
 _atom_site_fract_z
 _atom_site_occupancy
  Na  Na0  1  0.91864909  0.25131880  0.83408553  1.0
  Na  Na1  1  0.98278575  0.13696004  0.93475505  1.0
  Na  Na2  1  0.82404642  0.38655511  0.03134505  1.0
  Na  Na3  1  0.41761113  0.54363721  0.88880879  1.0
  Cl  Cl4  1  0.00106820  0.72029840  0.34811603  1.0
  Cl  Cl5  1  0.59475276  0.63176868  0.39200184  1.0
  Cl  Cl6  1  0.75085103  0.13764149  0.60901647  1.0
  Cl  Cl7  1  0.69444465  0.89967209  0.17813512  1.0
