# generated using pymatgen
data_NaCl
_symmetry_space_group_name_H-M   'P 1'
_cell_length_a   5.08054056
_cell_length_b   5.08054056
_cell_length_c   10.13998425
_cell_angle_alpha   90.00000000
_cell_angle_beta   90.00000000
_cell_angle_gamma   90.00000000
_symmetry_Int_Tables_number   1
_chemical_formula_structural   NaCl
_chemical_formula_sum   'Na4 Cl4'
_cell_volume   261.73218221
_cell_formula_units_Z   4
loop_
 _symmetry_equiv_pos_site_id
 _symmetry_equiv_pos_as_xyz
  1  'x, y, z'
loop_
 _atom_site_type_symbol
 _atom_site_label
 _atom_site_symmetry_multiplicity
 _atom_site_fract_x
 _atom_site_fract_y
 _atom_site_fract_z
 _atom_site_occupancy
  Na  Na0  1  0.80581565  0.26456813  0.99841686  1.0
  Na  Na1  1  0.95825303  0.03491494  0.17134906  1.0
  Na  Na2  1  0.26961640  0.87773155  0.18154452  1.0
  Na  Na3  1  0.49755809  0.62944512  0.05062116  1.0
  Cl  Cl4  1  0.00179749  0.34021415  0.53550333  1.0
  Cl  Cl5  1  0.79413559  0.35427593  0.12527284  1.0
  Cl  Cl6  1  0.80131103  0.27968038  0.72189989  1.0
  Cl  Cl7  1  0.90787658  0.93119982  0.07539519  1.0
