# generated using pymatgen
data_NaCl
_symmetry_space_group_name_H-M   'P 1'
_cell_length_a   4.35506231
_cell_length_b   12.80298228
_cell_length_c   15.26843345
_cell_angle_alpha   90.00000000
_cell_angle_beta   27.75903074
_cell_angle_gamma   90.00000000
_symmetry_Int_Tables_number   1
_chemical_formula_structural   NaCl
_chemical_formula_sum   'Na4 Cl4'
_cell_volume   396.51223622
_cell_formula_units_Z   4
loop_
 _symmetry_equiv_pos_site_id
 _symmetry_equiv_pos_as_xyz
  1  'x, y, z'
loop_
 _atom_site_type_symbol
 _atom_site_label
 _atom_site_symmetry_multiplicity
 _atom_site_fract_x
 _atom_site_fract_y
 _atom_site_fract_z
 _atom_site_occupancy
  Na  Na0  1  0.98282975  0.14793828  0.24675164  1.0
  Na  Na1  1  0.98092055  0.33963188  0.53074171  1.0
  Na  Na2  1  0.51074279  0.85983580  0.72110892  1.0
  Na  Na3  1  0.84839855  0.13833302  0.60797622  1.0
  Cl  Cl4  1  0.50000000  0.00000000  0.00000000  1.0
  Cl  Cl5  1  0.50000000  0.50000000  0.00000000  1.0
  Cl  Cl6  1  0.20085234  0.25000000  0.83187474  1.0
  Cl  Cl7  1  0.86434342  0.75000000  0.24110498  1.0
