# generated using pymatgen
data_NaCl
_symmetry_space_group_name_H-M   'P 1'
_cell_length_a   5.32036825
_cell_length_b   5.32036825
_cell_length_c   12.79526385
_cell_angle_alpha   90.00000000
_cell_angle_beta   90.00000000
_cell_angle_gamma   90.00000000
_symmetry_Int_Tables_number   1
_chemical_formula_structural   NaCl
_chemical_formula_sum   'Na4 Cl4'
_cell_volume   362.18681147
_cell_formula_units_Z   4
loop_
 _symmetry_equiv_pos_site_id
 _symmetry_equiv_pos_as_xyz
  1  'x, y, z'
loop_
 _atom_site_type_symbol
 _atom_site_label
 _atom_site_symmetry_multiplicity
 _atom_site_fract_x
 _atom_site_fract_y
 _atom_site_fract_z
 _atom_site_occupancy
  Na  Na0  1  0.97974331  0.27416910  0.95544257  1.0
  Na  Na1  1  0.92645173  0.09878251  0.48724287  1.0
  Na  Na2  1  0.87101331  0.47037991  0.53553228  1.0
  Na  Na3  1  0.75236670  0.32428565  0.07474349  1.0
  Cl  Cl4  1  0.00000000  0.00000000  0.33394059  1.0
  Cl  Cl5  1  0.00000000  0.00000000  0.26758439  1.0
  Cl  Cl6  1  0.00000000  0.00000000  0.94180150  1.0
  Cl  Cl7  1  0.00000000  0.00000000  0.16354045  1.0
