# generated using pymatgen
data_NaCl
_symmetry_space_group_name_H-M   'P 1'
_cell_length_a   3.95555634
_cell_length_b   3.95555634
_cell_length_c   17.01276544
_cell_angle_alpha   90.00000000
_cell_angle_beta   90.00000000
_cell_angle_gamma   90.00000000
_symmetry_Int_Tables_number   1
_chemical_formula_structural   NaCl
_chemical_formula_sum   'Na4 Cl4'
_cell_volume   266.18897481
_cell_formula_units_Z   4
loop_
 _symmetry_equiv_pos_site_id
 _symmetry_equiv_pos_as_xyz
  1  'x, y, z'
loop_
 _atom_site_type_symbol
 _atom_site_label
 _atom_site_symmetry_multiplicity
 _atom_site_fract_x
 _atom_site_fract_y
 _atom_site_fract_z
 _atom_site_occupancy
  Na  Na0  1  0.10647505  0.60647505  0.24683397  1.0
  Na  Na1  1  0.93628276  0.43628276  0.78786853  1.0
  Na  Na2  1  0.05364110  0.44635890  0.56780710  1.0
  Na  Na3  1  0.82474876  0.67525124  0.63931583  1.0
  Cl  Cl4  1  0.00000000  0.00000000  0.28359766  1.0
  Cl  Cl5  1  0.50000000  0.50000000  0.94168672  1.0
  Cl  Cl6  1  0.50000000  0.00000000  0.95042554  1.0
  Cl  Cl7  1  0.00000000  0.50000000  0.86012200  1.0
