# generated using pymatgen
data_NaCl
_symmetry_space_group_name_H-M   'P 1'
_cell_length_a   4.62912071
_cell_length_b   4.62912071
_cell_length_c   17.45938768
_cell_angle_alpha   90.00000000
_cell_angle_beta   90.00000000
_cell_angle_gamma   90.00000000
_symmetry_Int_Tables_number   1
_chemical_formula_structural   NaCl
_chemical_formula_sum   'Na4 Cl4'
_cell_volume   374.13300299
_cell_formula_units_Z   4
loop_
 _symmetry_equiv_pos_site_id
 _symmetry_equiv_pos_as_xyz
  1  'x, y, z'
loop_
 _atom_site_type_symbol
 _atom_site_label
 _atom_site_symmetry_multiplicity
 _atom_site_fract_x
 _atom_site_fract_y
 _atom_site_fract_z
 _atom_site_occupancy
  Na  Na0  1  0.81155979  0.44391662  0.61865063  1.0
  Na  Na1  1  0.38841214  0.13086140  0.83015297  1.0
  Na  Na2  1  0.71519316  0.52858395  0.25433843  1.0
  Na  Na3  1  0.02056716  0.47425350  0.36034525  1.0
  Cl  Cl4  1  0.16279821  0.67724207  0.01859260  1.0
  Cl  Cl5  1  0.61258022  0.47795059  0.35826034  1.0
  Cl  Cl6  1  0.84773370  0.94959048  0.40855887  1.0
  Cl  Cl7  1  0.60418152  0.69781021  0.02522127  1.0
