# generated using pymatgen
data_NaCl
_symmetry_space_group_name_H-M   'P 1'
_cell_length_a   5.12690867
_cell_length_b   5.12690867
_cell_length_c   14.74232817
_cell_angle_alpha   90.00000000
_cell_angle_beta   90.00000000
_cell_angle_gamma   120.00000000
_symmetry_Int_Tables_number   1
_chemical_formula_structural   NaCl
_chemical_formula_sum   'Na4 Cl4'
_cell_volume   335.58911694
_cell_formula_units_Z   4
loop_
 _symmetry_equiv_pos_site_id
 _symmetry_equiv_pos_as_xyz
  1  'x, y, z'
loop_
 _atom_site_type_symbol
 _atom_site_label
 _atom_site_symmetry_multiplicity
 _atom_site_fract_x
 _atom_site_fract_y
 _atom_site_fract_z
 _atom_site_occupancy
  Na  Na0  1  0.00000000  0.00000000  0.88779066  1.0
  Na  Na1  1  0.07932293  0.00000000  0.46871074  1.0
  Na  Na2  1  0.00000000  0.56891895  0.46222778  1.0
  Na  Na3  1  0.52419378  0.52419378  0.79946182  1.0
  Cl  Cl4  1  0.00000000  0.00000000  0.30899014  1.0
  Cl  Cl5  1  0.22691499  0.00000000  0.94791260  1.0
  Cl  Cl6  1  0.00000000  0.40155867  0.81794246  1.0
  Cl  Cl7  1  0.82244353  0.82244353  0.97161605  1.0
