# generated using pymatgen
data_NaCl
_symmetry_space_group_name_H-M   'P 1'
_cell_length_a   4.56072013
_cell_length_b   4.56072013
_cell_length_c   19.36215550
_cell_angle_alpha   90.00000000
_cell_angle_beta   90.00000000
_cell_angle_gamma   90.00000000
_symmetry_Int_Tables_number   1
_chemical_formula_structural   NaCl
_chemical_formula_sum   'Na4 Cl4'
_cell_volume   402.73608926
_cell_formula_units_Z   4
loop_
 _symmetry_equiv_pos_site_id
 _symmetry_equiv_pos_as_xyz
  1  'x, y, z'
loop_
 _atom_site_type_symbol
 _atom_site_label
 _atom_site_symmetry_multiplicity
 _atom_site_fract_x
 _atom_site_fract_y
 _atom_site_fract_z
 _atom_site_occupancy
  Na  Na0  1  0.95713145  0.08715210  0.70829565  1.0
  Na  Na1  1  0.78747657  0.05989309  0.01927181  1.0
  Na  Na2  1  0.81738277  0.48349478  0.08304792  1.0
  Na  Na3  1  0.55788501  0.65322370  0.93212018  1.0
  Cl  Cl4  1  0.09150256  0.26480068  0.41729088  1.0
  Cl  Cl5  1  0.65515471  0.44655701  0.00031003  1.0
  Cl  Cl6  1  0.76936052  0.30060455  0.55900461  1.0
  Cl  Cl7  1  0.55888472  0.91000172  0.21438563  1.0
