# generated using pymatgen
data_NaCl
_symmetry_space_group_name_H-M   'P 1'
_cell_length_a   5.29270252
_cell_length_b   16.81427350
_cell_length_c   12.15771341
_cell_angle_alpha   90.00000000
_cell_angle_beta   22.01391012
_cell_angle_gamma   90.00000000
_symmetry_Int_Tables_number   1
_chemical_formula_structural   NaCl
_chemical_formula_sum   'Na4 Cl4'
_cell_volume   405.54942057
_cell_formula_units_Z   4
loop_
 _symmetry_equiv_pos_site_id
 _symmetry_equiv_pos_as_xyz
  1  'x, y, z'
loop_
 _atom_site_type_symbol
 _atom_site_label
 _atom_site_symmetry_multiplicity
 _atom_site_fract_x
 _atom_site_fract_y
 _atom_site_fract_z
 _atom_site_occupancy
  Na  Na0  1  0.00000000  0.00000000  0.50000000  1.0
  Na  Na1  1  0.00000000  0.50000000  0.50000000  1.0
  Na  Na2  1  0.48422057  0.25000000  0.55011546  1.0
  Na  Na3  1  0.63387892  0.75000000  0.45127499  1.0
  Cl  Cl4  1  0.50000000  0.00000000  0.50000000  1.0
  Cl  Cl5  1  0.50000000  0.50000000  0.50000000  1.0
  Cl  Cl6  1  0.22318060  0.25000000  0.92736869  1.0
  Cl  Cl7  1  0.93137577  0.75000000  0.09151235  1.0
