# generated using pymatgen
data_NaCl
_symmetry_space_group_name_H-M   'P 1'
_cell_length_a   2.78594002
_cell_length_b   2.78594002
_cell_length_c   16.28376980
_cell_angle_alpha   90.00000000
_cell_angle_beta   90.00000000
_cell_angle_gamma   90.00000000
_symmetry_Int_Tables_number   1
_chemical_formula_structural   NaCl
_chemical_formula_sum   'Na4 Cl4'
_cell_volume   126.38585718
_cell_formula_units_Z   4
loop_
 _symmetry_equiv_pos_site_id
 _symmetry_equiv_pos_as_xyz
  1  'x, y, z'
loop_
 _atom_site_type_symbol
 _atom_site_label
 _atom_site_symmetry_multiplicity
 _atom_site_fract_x
 _atom_site_fract_y
 _atom_site_fract_z
 _atom_site_occupancy
  Na  Na0  1  0.81275398  0.81275398  0.62500000  1.0
  Na  Na1  1  0.96546519  0.96546519  0.12500000  1.0
  Na  Na2  1  0.40027654  0.59972346  0.37500000  1.0
  Na  Na3  1  0.50736655  0.49263345  0.87500000  1.0
  Cl  Cl4  1  0.50488518  0.50488518  0.62500000  1.0
  Cl  Cl5  1  0.52080467  0.52080467  0.12500000  1.0
  Cl  Cl6  1  0.74201689  0.25798311  0.37500000  1.0
  Cl  Cl7  1  0.03571829  0.96428171  0.87500000  1.0
