# generated using pymatgen
data_NaCl
_symmetry_space_group_name_H-M   'P 1'
_cell_length_a   6.06492744
_cell_length_b   17.23932224
_cell_length_c   2.53668536
_cell_angle_alpha   90.00000000
_cell_angle_beta   78.10041473
_cell_angle_gamma   90.00000000
_symmetry_Int_Tables_number   1
_chemical_formula_structural   NaCl
_chemical_formula_sum   'Na4 Cl4'
_cell_volume   259.52421127
_cell_formula_units_Z   4
loop_
 _symmetry_equiv_pos_site_id
 _symmetry_equiv_pos_as_xyz
  1  'x, y, z'
loop_
 _atom_site_type_symbol
 _atom_site_label
 _atom_site_symmetry_multiplicity
 _atom_site_fract_x
 _atom_site_fract_y
 _atom_site_fract_z
 _atom_site_occupancy
  Na  Na0  1  0.91650226  0.12821688  0.66330183  1.0
  Na  Na1  1  0.46743359  0.22455102  0.12274430  1.0
  Na  Na2  1  0.33419050  0.55385268  0.49669589  1.0
  Na  Na3  1  0.80066746  0.71242152  0.73261236  1.0
  Cl  Cl4  1  0.19585930  0.77970715  0.38565016  1.0
  Cl  Cl5  1  0.68935235  0.40057590  0.24886816  1.0
  Cl  Cl6  1  0.63934057  0.37659451  0.55930365  1.0
  Cl  Cl7  1  0.35923785  0.61994519  0.01954893  1.0
