# generated using pymatgen
data_NaCl
_symmetry_space_group_name_H-M   'P 1'
_cell_length_a   6.41302950
_cell_length_b   6.41302950
_cell_length_c   6.41302950
_cell_angle_alpha   90.00000000
_cell_angle_beta   90.00000000
_cell_angle_gamma   90.00000000
_symmetry_Int_Tables_number   1
_chemical_formula_structural   NaCl
_chemical_formula_sum   'Na4 Cl4'
_cell_volume   263.74832672
_cell_formula_units_Z   4
loop_
 _symmetry_equiv_pos_site_id
 _symmetry_equiv_pos_as_xyz
  1  'x, y, z'
loop_
 _atom_site_type_symbol
 _atom_site_label
 _atom_site_symmetry_multiplicity
 _atom_site_fract_x
 _atom_site_fract_y
 _atom_site_fract_z
 _atom_site_occupancy
  Na  Na0  1  0.98358057  0.98358057  0.98358057  1.0
  Na  Na1  1  0.63515651  0.13515651  0.36484349  1.0
  Na  Na2  1  0.82856819  0.67143181  0.32856819  1.0
  Na  Na3  1  0.76339747  0.23660253  0.73660253  1.0
  Cl  Cl4  1  0.18431448  0.18431448  0.18431448  1.0
  Cl  Cl5  1  0.26711078  0.76711078  0.73288922  1.0
  Cl  Cl6  1  0.26139232  0.23860768  0.76139232  1.0
  Cl  Cl7  1  0.03526131  0.96473869  0.46473869  1.0
