# generated using pymatgen
data_NaCl
_symmetry_space_group_name_H-M   'P 1'
_cell_length_a   5.13033316
_cell_length_b   16.66590620
_cell_length_c   2.55464366
_cell_angle_alpha   90.00000000
_cell_angle_beta   90.00000000
_cell_angle_gamma   90.00000000
_symmetry_Int_Tables_number   1
_chemical_formula_structural   NaCl
_chemical_formula_sum   'Na4 Cl4'
_cell_volume   218.42625121
_cell_formula_units_Z   4
loop_
 _symmetry_equiv_pos_site_id
 _symmetry_equiv_pos_as_xyz
  1  'x, y, z'
loop_
 _atom_site_type_symbol
 _atom_site_label
 _atom_site_symmetry_multiplicity
 _atom_site_fract_x
 _atom_site_fract_y
 _atom_site_fract_z
 _atom_site_occupancy
  Na  Na0  1  0.88413650  0.08856831  0.69439682  1.0
  Na  Na1  1  0.48995192  0.31057069  0.36875339  1.0
  Na  Na2  1  0.27763375  0.45168567  0.02771605  1.0
  Na  Na3  1  0.76022842  0.21351645  0.25673119  1.0
  Cl  Cl4  1  0.00000000  0.81295731  0.43546386  1.0
  Cl  Cl5  1  0.00000000  0.02714496  0.20731456  1.0
  Cl  Cl6  1  0.00000000  0.35812778  0.58500010  1.0
  Cl  Cl7  1  0.00000000  0.89423842  0.46405715  1.0
