# generated using pymatgen
data_NaCl
_symmetry_space_group_name_H-M   'P 1'
_cell_length_a   6.08523509
_cell_length_b   6.08523509
_cell_length_c   4.62584966
_cell_angle_alpha   90.00000000
_cell_angle_beta   90.00000000
_cell_angle_gamma   90.00000000
_symmetry_Int_Tables_number   1
_chemical_formula_structural   NaCl
_chemical_formula_sum   'Na4 Cl4'
_cell_volume   171.29561120
_cell_formula_units_Z   4
loop_
 _symmetry_equiv_pos_site_id
 _symmetry_equiv_pos_as_xyz
  1  'x, y, z'
loop_
 _atom_site_type_symbol
 _atom_site_label
 _atom_site_symmetry_multiplicity
 _atom_site_fract_x
 _atom_site_fract_y
 _atom_site_fract_z
 _atom_site_occupancy
  Na  Na0  1  0.00000000  0.00000000  0.98321119  1.0
  Na  Na1  1  0.00000000  0.50000000  0.87549174  1.0
  Na  Na2  1  0.50000000  0.50000000  0.76119965  1.0
  Na  Na3  1  0.50000000  0.00000000  0.20114740  1.0
  Cl  Cl4  1  0.00000000  0.00000000  0.24671488  1.0
  Cl  Cl5  1  0.00000000  0.50000000  0.18109823  1.0
  Cl  Cl6  1  0.50000000  0.50000000  0.19630366  1.0
  Cl  Cl7  1  0.50000000  0.00000000  0.68452775  1.0
