# generated using pymatgen
data_NaCl
_symmetry_space_group_name_H-M   'P 1'
_cell_length_a   5.72459664
_cell_length_b   5.72459664
_cell_length_c   2.91022642
_cell_angle_alpha   90.00000000
_cell_angle_beta   90.00000000
_cell_angle_gamma   90.00000000
_symmetry_Int_Tables_number   1
_chemical_formula_structural   NaCl
_chemical_formula_sum   'Na4 Cl4'
_cell_volume   95.37104948
_cell_formula_units_Z   4
loop_
 _symmetry_equiv_pos_site_id
 _symmetry_equiv_pos_as_xyz
  1  'x, y, z'
loop_
 _atom_site_type_symbol
 _atom_site_label
 _atom_site_symmetry_multiplicity
 _atom_site_fract_x
 _atom_site_fract_y
 _atom_site_fract_z
 _atom_site_occupancy
  Na  Na0  1  0.82185356  0.82185356  0.00000000  1.0
  Na  Na1  1  0.47664334  0.47664334  0.50000000  1.0
  Na  Na2  1  0.15062243  0.84937757  0.75000000  1.0
  Na  Na3  1  0.72984130  0.27015870  0.25000000  1.0
  Cl  Cl4  1  0.22261779  0.22261779  0.00000000  1.0
  Cl  Cl5  1  0.76004978  0.76004978  0.50000000  1.0
  Cl  Cl6  1  0.84435578  0.15564422  0.75000000  1.0
  Cl  Cl7  1  0.13031085  0.86968915  0.25000000  1.0
