# generated using pymatgen
data_NaCl
_symmetry_space_group_name_H-M   'P 1'
_cell_length_a   6.03840160
_cell_length_b   6.03840160
_cell_length_c   6.03840160
_cell_angle_alpha   90.00000000
_cell_angle_beta   90.00000000
_cell_angle_gamma   90.00000000
_symmetry_Int_Tables_number   1
_chemical_formula_structural   NaCl
_chemical_formula_sum   'Na4 Cl4'
_cell_volume   220.17397372
_cell_formula_units_Z   4
loop_
 _symmetry_equiv_pos_site_id
 _symmetry_equiv_pos_as_xyz
  1  'x, y, z'
loop_
 _atom_site_type_symbol
 _atom_site_label
 _atom_site_symmetry_multiplicity
 _atom_site_fract_x
 _atom_site_fract_y
 _atom_site_fract_z
 _atom_site_occupancy
  Na  Na0  1  0.86853587  0.86853587  0.86853587  1.0
  Na  Na1  1  0.55782862  0.05782862  0.44217138  1.0
  Na  Na2  1  0.32899428  0.17100572  0.82899428  1.0
  Na  Na3  1  0.76259423  0.23740577  0.73740577  1.0
  Cl  Cl4  1  0.16948252  0.16948252  0.16948252  1.0
  Cl  Cl5  1  0.29354540  0.79354540  0.70645460  1.0
  Cl  Cl6  1  0.48696002  0.01303998  0.98696002  1.0
  Cl  Cl7  1  0.17339907  0.82660093  0.32660093  1.0
