# generated using pymatgen
data_NaCl
_symmetry_space_group_name_H-M   'P 1'
_cell_length_a   4.54775554
_cell_length_b   14.73577421
_cell_length_c   4.91868842
_cell_angle_alpha   90.00000000
_cell_angle_beta   90.00000000
_cell_angle_gamma   90.00000000
_symmetry_Int_Tables_number   1
_chemical_formula_structural   NaCl
_chemical_formula_sum   'Na4 Cl4'
_cell_volume   329.62442296
_cell_formula_units_Z   4
loop_
 _symmetry_equiv_pos_site_id
 _symmetry_equiv_pos_as_xyz
  1  'x, y, z'
loop_
 _atom_site_type_symbol
 _atom_site_label
 _atom_site_symmetry_multiplicity
 _atom_site_fract_x
 _atom_site_fract_y
 _atom_site_fract_z
 _atom_site_occupancy
  Na  Na0  1  0.73305575  0.13840925  0.75229476  1.0
  Na  Na1  1  0.08802078  0.20350586  0.27819717  1.0
  Na  Na2  1  0.68239034  0.10192184  0.01149568  1.0
  Na  Na3  1  0.69419516  0.21702907  0.91310228  1.0
  Cl  Cl4  1  0.15365424  0.91035307  0.38782959  1.0
  Cl  Cl5  1  0.26775108  0.59716423  0.49882173  1.0
  Cl  Cl6  1  0.29885862  0.83928606  0.98627551  1.0
  Cl  Cl7  1  0.27277030  0.37742411  0.13280044  1.0
