# generated using pymatgen
data_NaCl
_symmetry_space_group_name_H-M   'P 1'
_cell_length_a   6.22574813
_cell_length_b   6.22574813
_cell_length_c   6.22574813
_cell_angle_alpha   90.00000000
_cell_angle_beta   90.00000000
_cell_angle_gamma   90.00000000
_symmetry_Int_Tables_number   1
_chemical_formula_structural   NaCl
_chemical_formula_sum   'Na4 Cl4'
_cell_volume   241.30962259
_cell_formula_units_Z   4
loop_
 _symmetry_equiv_pos_site_id
 _symmetry_equiv_pos_as_xyz
  1  'x, y, z'
loop_
 _atom_site_type_symbol
 _atom_site_label
 _atom_site_symmetry_multiplicity
 _atom_site_fract_x
 _atom_site_fract_y
 _atom_site_fract_z
 _atom_site_occupancy
  Na  Na0  1  0.95716747  0.95716747  0.95716747  1.0
  Na  Na1  1  0.98295800  0.48295800  0.01704200  1.0
  Na  Na2  1  0.24891582  0.25108418  0.74891582  1.0
  Na  Na3  1  0.98114343  0.01885657  0.51885657  1.0
  Cl  Cl4  1  0.22892017  0.22892017  0.22892017  1.0
  Cl  Cl5  1  0.25509637  0.75509637  0.74490363  1.0
  Cl  Cl6  1  0.47355570  0.02644430  0.97355570  1.0
  Cl  Cl7  1  0.26531659  0.73468341  0.23468341  1.0
