# generated using pymatgen
data_NaCl
_symmetry_space_group_name_H-M   'P 1'
_cell_length_a   5.01240064
_cell_length_b   5.01240064
_cell_length_c   15.36109254
_cell_angle_alpha   90.00000000
_cell_angle_beta   90.00000000
_cell_angle_gamma   90.00000000
_symmetry_Int_Tables_number   1
_chemical_formula_structural   NaCl
_chemical_formula_sum   'Na4 Cl4'
_cell_volume   385.93454945
_cell_formula_units_Z   4
loop_
 _symmetry_equiv_pos_site_id
 _symmetry_equiv_pos_as_xyz
  1  'x, y, z'
loop_
 _atom_site_type_symbol
 _atom_site_label
 _atom_site_symmetry_multiplicity
 _atom_site_fract_x
 _atom_site_fract_y
 _atom_site_fract_z
 _atom_site_occupancy
  Na  Na0  1  0.87771685  0.87771685  0.00000000  1.0
  Na  Na1  1  0.16936920  0.16936920  0.50000000  1.0
  Na  Na2  1  0.31515903  0.68484097  0.75000000  1.0
  Na  Na3  1  0.80575146  0.19424854  0.25000000  1.0
  Cl  Cl4  1  0.32601405  0.32601405  0.00000000  1.0
  Cl  Cl5  1  0.83269171  0.83269171  0.50000000  1.0
  Cl  Cl6  1  0.65442272  0.34557728  0.75000000  1.0
  Cl  Cl7  1  0.11451311  0.88548689  0.25000000  1.0
