# generated using pymatgen
data_NaCl
_symmetry_space_group_name_H-M   'P 1'
_cell_length_a   2.80982502
_cell_length_b   21.65108010
_cell_length_c   2.02860971
_cell_angle_alpha   90.00000000
_cell_angle_beta   94.47576224
_cell_angle_gamma   90.00000000
_symmetry_Int_Tables_number   1
_chemical_formula_structural   NaCl
_chemical_formula_sum   'Na4 Cl4'
_cell_volume   123.03563334
_cell_formula_units_Z   4
loop_
 _symmetry_equiv_pos_site_id
 _symmetry_equiv_pos_as_xyz
  1  'x, y, z'
loop_
 _atom_site_type_symbol
 _atom_site_label
 _atom_site_symmetry_multiplicity
 _atom_site_fract_x
 _atom_site_fract_y
 _atom_site_fract_z
 _atom_site_occupancy
  Na  Na0  1  0.81785055  0.30266550  0.85345684  1.0
  Na  Na1  1  0.40985310  0.45990877  0.38686710  1.0
  Na  Na2  1  0.11868751  0.87604989  0.44929207  1.0
  Na  Na3  1  0.78694333  0.05296698  0.02748155  1.0
  Cl  Cl4  1  0.14047097  0.95200980  0.19990899  1.0
  Cl  Cl5  1  0.10000782  0.27625098  0.42788583  1.0
  Cl  Cl6  1  0.16796157  0.67028821  0.72567933  1.0
  Cl  Cl7  1  0.34299418  0.20285452  0.30172396  1.0
