# generated using pymatgen
data_NaCl
_symmetry_space_group_name_H-M   'P 1'
_cell_length_a   4.25382492
_cell_length_b   17.91481055
_cell_length_c   4.47600576
_cell_angle_alpha   73.16603627
_cell_angle_beta   82.95288770
_cell_angle_gamma   134.09738260
_symmetry_Int_Tables_number   1
_chemical_formula_structural   NaCl
_chemical_formula_sum   'Na4 Cl4'
_cell_volume   206.74830212
_cell_formula_units_Z   4
loop_
 _symmetry_equiv_pos_site_id
 _symmetry_equiv_pos_as_xyz
  1  'x, y, z'
loop_
 _atom_site_type_symbol
 _atom_site_label
 _atom_site_symmetry_multiplicity
 _atom_site_fract_x
 _atom_site_fract_y
 _atom_site_fract_z
 _atom_site_occupancy
  Na  Na0  1  0.00000000  0.50000000  0.50000000  1.0
  Na  Na1  1  0.50000000  0.00000000  0.00000000  1.0
  Na  Na2  1  0.62813782  0.33363065  0.15931650  1.0
  Na  Na3  1  0.76140977  0.63671698  0.63734438  1.0
  Cl  Cl4  1  0.00000000  0.50000000  0.00000000  1.0
  Cl  Cl5  1  0.50000000  0.50000000  0.00000000  1.0
  Cl  Cl6  1  0.55391390  0.19158307  0.66405772  1.0
  Cl  Cl7  1  0.30392527  0.83816237  0.01579240  1.0
