# generated using pymatgen
data_NaCl
_symmetry_space_group_name_H-M   'P 1'
_cell_length_a   4.82888408
_cell_length_b   20.92707526
_cell_length_c   3.02153289
_cell_angle_alpha   90.00000000
_cell_angle_beta   62.07406994
_cell_angle_gamma   90.00000000
_symmetry_Int_Tables_number   1
_chemical_formula_structural   NaCl
_chemical_formula_sum   'Na4 Cl4'
_cell_volume   269.78365055
_cell_formula_units_Z   4
loop_
 _symmetry_equiv_pos_site_id
 _symmetry_equiv_pos_as_xyz
  1  'x, y, z'
loop_
 _atom_site_type_symbol
 _atom_site_label
 _atom_site_symmetry_multiplicity
 _atom_site_fract_x
 _atom_site_fract_y
 _atom_site_fract_z
 _atom_site_occupancy
  Na  Na0  1  0.95349486  0.14233814  0.79219340  1.0
  Na  Na1  1  0.42594627  0.54117231  0.28553866  1.0
  Na  Na2  1  0.96842485  0.77023843  0.35973791  1.0
  Na  Na3  1  0.79652898  0.97181143  0.06101112  1.0
  Cl  Cl4  1  0.29711508  0.74913003  0.35805418  1.0
  Cl  Cl5  1  0.05081009  0.41614054  0.14211420  1.0
  Cl  Cl6  1  0.80041527  0.66227474  0.55201111  1.0
  Cl  Cl7  1  0.35755600  0.09952765  0.27500651  1.0
