# generated using pymatgen
data_NaCl
_symmetry_space_group_name_H-M   'P 1'
_cell_length_a   5.83941793
_cell_length_b   16.17320097
_cell_length_c   2.96749097
_cell_angle_alpha   90.00000000
_cell_angle_beta   90.00000000
_cell_angle_gamma   90.00000000
_symmetry_Int_Tables_number   1
_chemical_formula_structural   NaCl
_chemical_formula_sum   'Na4 Cl4'
_cell_volume   280.25601879
_cell_formula_units_Z   4
loop_
 _symmetry_equiv_pos_site_id
 _symmetry_equiv_pos_as_xyz
  1  'x, y, z'
loop_
 _atom_site_type_symbol
 _atom_site_label
 _atom_site_symmetry_multiplicity
 _atom_site_fract_x
 _atom_site_fract_y
 _atom_site_fract_z
 _atom_site_occupancy
  Na  Na0  1  0.87446947  0.14631813  0.66778918  1.0
  Na  Na1  1  0.02134085  0.32225031  0.35965369  1.0
  Na  Na2  1  0.80024018  0.44774011  0.00656098  1.0
  Na  Na3  1  0.78485893  0.22884287  0.24916511  1.0
  Cl  Cl4  1  0.20154451  0.80055719  0.42118548  1.0
  Cl  Cl5  1  0.20723874  0.00343248  0.17672790  1.0
  Cl  Cl6  1  0.16638309  0.60599810  0.09577351  1.0
  Cl  Cl7  1  0.32334967  0.07662012  0.98338047  1.0
