# generated using pymatgen
data_NaCl
_symmetry_space_group_name_H-M   'P 1'
_cell_length_a   4.36350534
_cell_length_b   4.36350534
_cell_length_c   4.36350534
_cell_angle_alpha   90.00000000
_cell_angle_beta   90.00000000
_cell_angle_gamma   90.00000000
_symmetry_Int_Tables_number   1
_chemical_formula_structural   NaCl
_chemical_formula_sum   'Na4 Cl4'
_cell_volume   83.08192210
_cell_formula_units_Z   4
loop_
 _symmetry_equiv_pos_site_id
 _symmetry_equiv_pos_as_xyz
  1  'x, y, z'
loop_
 _atom_site_type_symbol
 _atom_site_label
 _atom_site_symmetry_multiplicity
 _atom_site_fract_x
 _atom_site_fract_y
 _atom_site_fract_z
 _atom_site_occupancy
  Na  Na0  1  0.81670831  0.81670831  0.81670831  1.0
  Na  Na1  1  0.23089989  0.73089989  0.76910011  1.0
  Na  Na2  1  0.70309377  0.79690623  0.20309377  1.0
  Na  Na3  1  0.33217638  0.66782362  0.16782362  1.0
  Cl  Cl4  1  0.38290258  0.38290258  0.38290258  1.0
  Cl  Cl5  1  0.45909891  0.95909891  0.54090109  1.0
  Cl  Cl6  1  0.31290427  0.18709573  0.81290427  1.0
  Cl  Cl7  1  0.64800684  0.35199316  0.85199316  1.0
