# generated using pymatgen
data_NaCl
_symmetry_space_group_name_H-M   'P 1'
_cell_length_a   4.61877052
_cell_length_b   4.61877052
_cell_length_c   4.99382763
_cell_angle_alpha   90.00000000
_cell_angle_beta   90.00000000
_cell_angle_gamma   90.00000000
_symmetry_Int_Tables_number   1
_chemical_formula_structural   NaCl
_chemical_formula_sum   'Na4 Cl4'
_cell_volume   106.53353016
_cell_formula_units_Z   4
loop_
 _symmetry_equiv_pos_site_id
 _symmetry_equiv_pos_as_xyz
  1  'x, y, z'
loop_
 _atom_site_type_symbol
 _atom_site_label
 _atom_site_symmetry_multiplicity
 _atom_site_fract_x
 _atom_site_fract_y
 _atom_site_fract_z
 _atom_site_occupancy
  Na  Na0  1  0.00000000  0.00000000  0.92335794  1.0
  Na  Na1  1  0.00000000  0.00000000  0.61319796  1.0
  Na  Na2  1  0.00000000  0.50000000  0.26869942  1.0
  Na  Na3  1  0.50000000  0.00000000  0.43584503  1.0
  Cl  Cl4  1  0.28744180  0.73813854  0.11377559  1.0
  Cl  Cl5  1  0.93202065  0.41287454  0.81599593  1.0
  Cl  Cl6  1  0.85670250  0.43669252  0.52150668  1.0
  Cl  Cl7  1  0.31193458  0.22292055  0.75091871  1.0
