# generated using pymatgen
data_NaCl
_symmetry_space_group_name_H-M   'P 1'
_cell_length_a   3.22268879
_cell_length_b   18.23162252
_cell_length_c   4.99528256
_cell_angle_alpha   90.00000000
_cell_angle_beta   86.57287628
_cell_angle_gamma   90.00000000
_symmetry_Int_Tables_number   1
_chemical_formula_structural   NaCl
_chemical_formula_sum   'Na4 Cl4'
_cell_volume   292.97217690
_cell_formula_units_Z   4
loop_
 _symmetry_equiv_pos_site_id
 _symmetry_equiv_pos_as_xyz
  1  'x, y, z'
loop_
 _atom_site_type_symbol
 _atom_site_label
 _atom_site_symmetry_multiplicity
 _atom_site_fract_x
 _atom_site_fract_y
 _atom_site_fract_z
 _atom_site_occupancy
  Na  Na0  1  0.91767192  0.17609523  0.68940171  1.0
  Na  Na1  1  0.46637506  0.24533914  0.23123933  1.0
  Na  Na2  1  0.57574839  0.17168638  0.22674267  1.0
  Na  Na3  1  0.22990490  0.64596863  0.66054428  1.0
  Cl  Cl4  1  0.20474741  0.59186949  0.36351172  1.0
  Cl  Cl5  1  0.31284195  0.01782958  0.26422463  1.0
  Cl  Cl6  1  0.62786537  0.25586089  0.49939041  1.0
  Cl  Cl7  1  0.75693715  0.80709024  0.20081564  1.0
