# generated using pymatgen
data_NaCl
_symmetry_space_group_name_H-M   'P 1'
_cell_length_a   6.19576250
_cell_length_b   18.26609855
_cell_length_c   3.01825690
_cell_angle_alpha   90.00000000
_cell_angle_beta   82.50657301
_cell_angle_gamma   90.00000000
_symmetry_Int_Tables_number   1
_chemical_formula_structural   NaCl
_chemical_formula_sum   'Na4 Cl4'
_cell_volume   338.66622189
_cell_formula_units_Z   4
loop_
 _symmetry_equiv_pos_site_id
 _symmetry_equiv_pos_as_xyz
  1  'x, y, z'
loop_
 _atom_site_type_symbol
 _atom_site_label
 _atom_site_symmetry_multiplicity
 _atom_site_fract_x
 _atom_site_fract_y
 _atom_site_fract_z
 _atom_site_occupancy
  Na  Na0  1  0.94598760  0.00000000  0.74755225  1.0
  Na  Na1  1  0.49880373  0.50000000  0.81471333  1.0
  Na  Na2  1  0.36625899  0.46885562  0.51731749  1.0
  Na  Na3  1  0.20079680  0.85170937  0.23756656  1.0
  Cl  Cl4  1  0.17956616  0.50000000  0.42000465  1.0
  Cl  Cl5  1  0.17655164  0.50000000  0.74795238  1.0
  Cl  Cl6  1  0.77650345  0.34273544  0.58176045  1.0
  Cl  Cl7  1  0.62163000  0.78689726  0.92120851  1.0
