# generated using pymatgen
data_NaCl
_symmetry_space_group_name_H-M   'P 1'
_cell_length_a   4.84962712
_cell_length_b   4.84962712
_cell_length_c   4.84962712
_cell_angle_alpha   90.00000000
_cell_angle_beta   90.00000000
_cell_angle_gamma   90.00000000
_symmetry_Int_Tables_number   1
_chemical_formula_structural   NaCl
_chemical_formula_sum   'Na4 Cl4'
_cell_volume   114.05781381
_cell_formula_units_Z   4
loop_
 _symmetry_equiv_pos_site_id
 _symmetry_equiv_pos_as_xyz
  1  'x, y, z'
loop_
 _atom_site_type_symbol
 _atom_site_label
 _atom_site_symmetry_multiplicity
 _atom_site_fract_x
 _atom_site_fract_y
 _atom_site_fract_z
 _atom_site_occupancy
  Na  Na0  1  0.85538232  0.85538232  0.85538232  1.0
  Na  Na1  1  0.82733925  0.32733925  0.17266075  1.0
  Na  Na2  1  0.79560526  0.70439474  0.29560526  1.0
  Na  Na3  1  0.74701445  0.25298555  0.75298555  1.0
  Cl  Cl4  1  0.20780908  0.20780908  0.20780908  1.0
  Cl  Cl5  1  0.28115057  0.78115057  0.71884943  1.0
  Cl  Cl6  1  0.42042498  0.07957502  0.92042498  1.0
  Cl  Cl7  1  0.05158024  0.94841976  0.44841976  1.0
