# generated using pymatgen
data_NaCl
_symmetry_space_group_name_H-M   'P 1'
_cell_length_a   5.40696504
_cell_length_b   5.40696504
_cell_length_c   4.54354672
_cell_angle_alpha   90.00000000
_cell_angle_beta   90.00000000
_cell_angle_gamma   90.00000000
_symmetry_Int_Tables_number   1
_chemical_formula_structural   NaCl
_chemical_formula_sum   'Na4 Cl4'
_cell_volume   132.83181940
_cell_formula_units_Z   4
loop_
 _symmetry_equiv_pos_site_id
 _symmetry_equiv_pos_as_xyz
  1  'x, y, z'
loop_
 _atom_site_type_symbol
 _atom_site_label
 _atom_site_symmetry_multiplicity
 _atom_site_fract_x
 _atom_site_fract_y
 _atom_site_fract_z
 _atom_site_occupancy
  Na  Na0  1  0.89625621  0.89625621  0.00000000  1.0
  Na  Na1  1  0.43992743  0.43992743  0.50000000  1.0
  Na  Na2  1  0.24134839  0.75865161  0.25000000  1.0
  Na  Na3  1  0.75696840  0.24303160  0.75000000  1.0
  Cl  Cl4  1  0.31128652  0.31128652  0.00000000  1.0
  Cl  Cl5  1  0.71944913  0.71944913  0.50000000  1.0
  Cl  Cl6  1  0.92039415  0.07960585  0.25000000  1.0
  Cl  Cl7  1  0.21964775  0.78035225  0.75000000  1.0
