# generated using pymatgen
data_NaCl
_symmetry_space_group_name_H-M   'P 1'
_cell_length_a   5.73185619
_cell_length_b   14.99151747
_cell_length_c   4.74263030
_cell_angle_alpha   90.00000000
_cell_angle_beta   89.34958498
_cell_angle_gamma   90.00000000
_symmetry_Int_Tables_number   1
_chemical_formula_structural   NaCl
_chemical_formula_sum   'Na4 Cl4'
_cell_volume   407.50427492
_cell_formula_units_Z   4
loop_
 _symmetry_equiv_pos_site_id
 _symmetry_equiv_pos_as_xyz
  1  'x, y, z'
loop_
 _atom_site_type_symbol
 _atom_site_label
 _atom_site_symmetry_multiplicity
 _atom_site_fract_x
 _atom_site_fract_y
 _atom_site_fract_z
 _atom_site_occupancy
  Na  Na0  1  0.86997304  0.09152407  0.77476572  1.0
  Na  Na1  1  0.59481415  0.27369900  0.74414355  1.0
  Na  Na2  1  0.75947266  0.94853048  0.52768488  1.0
  Na  Na3  1  0.80548419  0.27341089  0.14140152  1.0
  Cl  Cl4  1  0.12175857  0.00000000  0.34357125  1.0
  Cl  Cl5  1  0.80796893  0.50000000  0.72984753  1.0
  Cl  Cl6  1  0.60666276  0.00000000  0.55486110  1.0
  Cl  Cl7  1  0.15137531  0.50000000  0.94132584  1.0
