# generated using pymatgen
data_NaCl
_symmetry_space_group_name_H-M   'P 1'
_cell_length_a   3.59095128
_cell_length_b   18.77897194
_cell_length_c   6.67113268
_cell_angle_alpha   90.00000000
_cell_angle_beta   125.62281965
_cell_angle_gamma   90.00000000
_symmetry_Int_Tables_number   1
_chemical_formula_structural   NaCl
_chemical_formula_sum   'Na4 Cl4'
_cell_volume   365.68014907
_cell_formula_units_Z   4
loop_
 _symmetry_equiv_pos_site_id
 _symmetry_equiv_pos_as_xyz
  1  'x, y, z'
loop_
 _atom_site_type_symbol
 _atom_site_label
 _atom_site_symmetry_multiplicity
 _atom_site_fract_x
 _atom_site_fract_y
 _atom_site_fract_z
 _atom_site_occupancy
  Na  Na0  1  0.81036052  0.16311917  0.90785910  1.0
  Na  Na1  1  0.66183452  0.20978406  0.17940788  1.0
  Na  Na2  1  0.24054074  0.59653974  0.52098744  1.0
  Na  Na3  1  0.24721055  0.94634460  0.87659773  1.0
  Cl  Cl4  1  0.19300634  0.86281840  0.36506186  1.0
  Cl  Cl5  1  0.18649947  0.45631630  0.37519529  1.0
  Cl  Cl6  1  0.50939402  0.35826022  0.59525281  1.0
  Cl  Cl7  1  0.68090128  0.91425117  0.60830877  1.0
