# generated using pymatgen
data_NaCl
_symmetry_space_group_name_H-M   'P 1'
_cell_length_a   6.99803261
_cell_length_b   6.99803261
_cell_length_c   5.34174670
_cell_angle_alpha   90.00000000
_cell_angle_beta   90.00000000
_cell_angle_gamma   90.00000000
_symmetry_Int_Tables_number   1
_chemical_formula_structural   NaCl
_chemical_formula_sum   'Na4 Cl4'
_cell_volume   261.59847879
_cell_formula_units_Z   4
loop_
 _symmetry_equiv_pos_site_id
 _symmetry_equiv_pos_as_xyz
  1  'x, y, z'
loop_
 _atom_site_type_symbol
 _atom_site_label
 _atom_site_symmetry_multiplicity
 _atom_site_fract_x
 _atom_site_fract_y
 _atom_site_fract_z
 _atom_site_occupancy
  Na  Na0  1  0.94843159  0.44179864  0.88336188  1.0
  Na  Na1  1  0.41163137  0.49684294  0.16322976  1.0
  Na  Na2  1  0.79170319  0.61168212  0.57873665  1.0
  Na  Na3  1  0.35983327  0.75769157  0.19343829  1.0
  Cl  Cl4  1  0.15516087  0.79686467  0.25459600  1.0
  Cl  Cl5  1  0.96588187  0.54788890  0.36708908  1.0
  Cl  Cl6  1  0.67819246  0.55130154  0.93224591  1.0
  Cl  Cl7  1  0.25825065  0.17902168  0.61568007  1.0
