# generated using pymatgen
data_NaCl
_symmetry_space_group_name_H-M   'P 1'
_cell_length_a   6.31523614
_cell_length_b   6.31523614
_cell_length_c   3.82347318
_cell_angle_alpha   90.00000000
_cell_angle_beta   90.00000000
_cell_angle_gamma   90.00000000
_symmetry_Int_Tables_number   1
_chemical_formula_structural   NaCl
_chemical_formula_sum   'Na4 Cl4'
_cell_volume   152.48855075
_cell_formula_units_Z   4
loop_
 _symmetry_equiv_pos_site_id
 _symmetry_equiv_pos_as_xyz
  1  'x, y, z'
loop_
 _atom_site_type_symbol
 _atom_site_label
 _atom_site_symmetry_multiplicity
 _atom_site_fract_x
 _atom_site_fract_y
 _atom_site_fract_z
 _atom_site_occupancy
  Na  Na0  1  0.83912402  0.18095572  0.77174705  1.0
  Na  Na1  1  0.20403929  0.24057630  0.19336967  1.0
  Na  Na2  1  0.63826300  0.13278653  0.53916934  1.0
  Na  Na3  1  0.25380671  0.68420489  0.88034981  1.0
  Cl  Cl4  1  0.39695779  0.88259481  0.37263526  1.0
  Cl  Cl5  1  0.75901352  0.56077690  0.11821490  1.0
  Cl  Cl6  1  0.77674558  0.58507648  0.83302816  1.0
  Cl  Cl7  1  0.14848420  0.38214680  0.96549433  1.0
