# generated using pymatgen
data_NaCl
_symmetry_space_group_name_H-M   'P 1'
_cell_length_a   6.71777021
_cell_length_b   6.71777021
_cell_length_c   6.71777021
_cell_angle_alpha   90.00000000
_cell_angle_beta   90.00000000
_cell_angle_gamma   90.00000000
_symmetry_Int_Tables_number   1
_chemical_formula_structural   NaCl
_chemical_formula_sum   'Na4 Cl4'
_cell_volume   303.16246698
_cell_formula_units_Z   4
loop_
 _symmetry_equiv_pos_site_id
 _symmetry_equiv_pos_as_xyz
  1  'x, y, z'
loop_
 _atom_site_type_symbol
 _atom_site_label
 _atom_site_symmetry_multiplicity
 _atom_site_fract_x
 _atom_site_fract_y
 _atom_site_fract_z
 _atom_site_occupancy
  Na  Na0  1  0.83082164  0.83082164  0.83082164  1.0
  Na  Na1  1  0.02711923  0.52711923  0.97288077  1.0
  Na  Na2  1  0.71696141  0.78303859  0.21696141  1.0
  Na  Na3  1  0.67726917  0.32273083  0.82273083  1.0
  Cl  Cl4  1  0.94799173  0.94799173  0.94799173  1.0
  Cl  Cl5  1  0.25205346  0.75205346  0.74794654  1.0
  Cl  Cl6  1  0.35287681  0.14712319  0.85287681  1.0
  Cl  Cl7  1  0.21923288  0.78076712  0.28076712  1.0
