# generated using pymatgen
data_NaCl
_symmetry_space_group_name_H-M   'P 1'
_cell_length_a   6.23819137
_cell_length_b   6.23819137
_cell_length_c   4.23178619
_cell_angle_alpha   90.00000000
_cell_angle_beta   90.00000000
_cell_angle_gamma   90.00000000
_symmetry_Int_Tables_number   1
_chemical_formula_structural   NaCl
_chemical_formula_sum   'Na4 Cl4'
_cell_volume   164.68009318
_cell_formula_units_Z   4
loop_
 _symmetry_equiv_pos_site_id
 _symmetry_equiv_pos_as_xyz
  1  'x, y, z'
loop_
 _atom_site_type_symbol
 _atom_site_label
 _atom_site_symmetry_multiplicity
 _atom_site_fract_x
 _atom_site_fract_y
 _atom_site_fract_z
 _atom_site_occupancy
  Na  Na0  1  0.95480684  0.95480684  0.00000000  1.0
  Na  Na1  1  0.50339701  0.50339701  0.50000000  1.0
  Na  Na2  1  0.16630610  0.83369390  0.25000000  1.0
  Na  Na3  1  0.65927139  0.34072861  0.75000000  1.0
  Cl  Cl4  1  0.22135362  0.22135362  0.00000000  1.0
  Cl  Cl5  1  0.63912765  0.63912765  0.50000000  1.0
  Cl  Cl6  1  0.77395722  0.22604278  0.25000000  1.0
  Cl  Cl7  1  0.14705404  0.85294596  0.75000000  1.0
