# generated using pymatgen
data_NaCl
_symmetry_space_group_name_H-M   'P 1'
_cell_length_a   4.16075775
_cell_length_b   16.01363262
_cell_length_c   5.99747327
_cell_angle_alpha   90.00000000
_cell_angle_beta   107.38267856
_cell_angle_gamma   90.00000000
_symmetry_Int_Tables_number   1
_chemical_formula_structural   NaCl
_chemical_formula_sum   'Na4 Cl4'
_cell_volume   381.35505101
_cell_formula_units_Z   4
loop_
 _symmetry_equiv_pos_site_id
 _symmetry_equiv_pos_as_xyz
  1  'x, y, z'
loop_
 _atom_site_type_symbol
 _atom_site_label
 _atom_site_symmetry_multiplicity
 _atom_site_fract_x
 _atom_site_fract_y
 _atom_site_fract_z
 _atom_site_occupancy
  Na  Na0  1  0.94903126  0.10744399  0.56845276  1.0
  Na  Na1  1  0.30858105  0.45888691  0.86230982  1.0
  Na  Na2  1  0.82877599  0.49551714  0.62075747  1.0
  Na  Na3  1  0.33806418  0.32475273  0.62197386  1.0
  Cl  Cl4  1  0.22689255  0.82303216  0.26848436  1.0
  Cl  Cl5  1  0.90326549  0.89955325  0.83111342  1.0
  Cl  Cl6  1  0.30342726  0.82999098  0.51579045  1.0
  Cl  Cl7  1  0.55284533  0.28377244  0.58756477  1.0
