# generated using pymatgen
data_NaCl
_symmetry_space_group_name_H-M   'P 1'
_cell_length_a   4.87172491
_cell_length_b   22.50993239
_cell_length_c   2.46537856
_cell_angle_alpha   90.00000000
_cell_angle_beta   90.00000000
_cell_angle_gamma   90.00000000
_symmetry_Int_Tables_number   1
_chemical_formula_structural   NaCl
_chemical_formula_sum   'Na4 Cl4'
_cell_volume   270.35883265
_cell_formula_units_Z   4
loop_
 _symmetry_equiv_pos_site_id
 _symmetry_equiv_pos_as_xyz
  1  'x, y, z'
loop_
 _atom_site_type_symbol
 _atom_site_label
 _atom_site_symmetry_multiplicity
 _atom_site_fract_x
 _atom_site_fract_y
 _atom_site_fract_z
 _atom_site_occupancy
  Na  Na0  1  0.96516205  0.32471567  0.89147105  1.0
  Na  Na1  1  0.41705518  0.44059364  0.21942515  1.0
  Na  Na2  1  0.03271032  0.16976142  0.25270223  1.0
  Na  Na3  1  0.22691349  0.96376065  0.03976124  1.0
  Cl  Cl4  1  0.20570566  0.74348436  0.23629545  1.0
  Cl  Cl5  1  0.94976939  0.52004325  0.35709853  1.0
  Cl  Cl6  1  0.11976863  0.25499018  0.51946155  1.0
  Cl  Cl7  1  0.73066082  0.71602982  0.29422923  1.0
