# generated using pymatgen
data_NaCl
_symmetry_space_group_name_H-M   'P 1'
_cell_length_a   7.11284521
_cell_length_b   7.11284521
_cell_length_c   7.11284521
_cell_angle_alpha   90.00000000
_cell_angle_beta   90.00000000
_cell_angle_gamma   90.00000000
_symmetry_Int_Tables_number   1
_chemical_formula_structural   NaCl
_chemical_formula_sum   'Na4 Cl4'
_cell_volume   359.85709772
_cell_formula_units_Z   4
loop_
 _symmetry_equiv_pos_site_id
 _symmetry_equiv_pos_as_xyz
  1  'x, y, z'
loop_
 _atom_site_type_symbol
 _atom_site_label
 _atom_site_symmetry_multiplicity
 _atom_site_fract_x
 _atom_site_fract_y
 _atom_site_fract_z
 _atom_site_occupancy
  Na  Na0  1  0.92107299  0.92107299  0.92107299  1.0
  Na  Na1  1  0.16767795  0.66767795  0.83232205  1.0
  Na  Na2  1  0.29721154  0.20278846  0.79721154  1.0
  Na  Na3  1  0.03880973  0.96119027  0.46119027  1.0
  Cl  Cl4  1  0.64655441  0.64655441  0.64655441  1.0
  Cl  Cl5  1  0.30032815  0.80032815  0.69967185  1.0
  Cl  Cl6  1  0.46753401  0.03246599  0.96753401  1.0
  Cl  Cl7  1  0.20653176  0.79346824  0.29346824  1.0
