# generated using pymatgen
data_NaCl
_symmetry_space_group_name_H-M   'P 1'
_cell_length_a   7.12336080
_cell_length_b   7.12336080
_cell_length_c   7.12336080
_cell_angle_alpha   90.00000000
_cell_angle_beta   90.00000000
_cell_angle_gamma   90.00000000
_symmetry_Int_Tables_number   1
_chemical_formula_structural   NaCl
_chemical_formula_sum   'Na4 Cl4'
_cell_volume   361.45549052
_cell_formula_units_Z   4
loop_
 _symmetry_equiv_pos_site_id
 _symmetry_equiv_pos_as_xyz
  1  'x, y, z'
loop_
 _atom_site_type_symbol
 _atom_site_label
 _atom_site_symmetry_multiplicity
 _atom_site_fract_x
 _atom_site_fract_y
 _atom_site_fract_z
 _atom_site_occupancy
  Na  Na0  1  0.90075472  0.90075472  0.90075472  1.0
  Na  Na1  1  0.93008424  0.43008424  0.06991576  1.0
  Na  Na2  1  0.51723359  0.98276641  0.01723359  1.0
  Na  Na3  1  0.76718470  0.23281530  0.73281530  1.0
  Cl  Cl4  1  0.11144111  0.11144111  0.11144111  1.0
  Cl  Cl5  1  0.33289498  0.83289498  0.66710502  1.0
  Cl  Cl6  1  0.35667958  0.14332042  0.85667958  1.0
  Cl  Cl7  1  0.26671641  0.73328359  0.23328359  1.0
