# generated using pymatgen
data_NaCl
_symmetry_space_group_name_H-M   'P 1'
_cell_length_a   6.71962605
_cell_length_b   17.88519746
_cell_length_c   3.01510370
_cell_angle_alpha   90.00000000
_cell_angle_beta   90.00000000
_cell_angle_gamma   90.00000000
_symmetry_Int_Tables_number   1
_chemical_formula_structural   NaCl
_chemical_formula_sum   'Na4 Cl4'
_cell_volume   362.36070672
_cell_formula_units_Z   4
loop_
 _symmetry_equiv_pos_site_id
 _symmetry_equiv_pos_as_xyz
  1  'x, y, z'
loop_
 _atom_site_type_symbol
 _atom_site_label
 _atom_site_symmetry_multiplicity
 _atom_site_fract_x
 _atom_site_fract_y
 _atom_site_fract_z
 _atom_site_occupancy
  Na  Na0  1  0.00000000  0.00000000  0.74831631  1.0
  Na  Na1  1  0.00000000  0.50000000  0.15447888  1.0
  Na  Na2  1  0.50000000  0.00000000  0.28677551  1.0
  Na  Na3  1  0.50000000  0.50000000  0.79367003  1.0
  Cl  Cl4  1  0.56831283  0.63646360  0.19320587  1.0
  Cl  Cl5  1  0.73909932  0.34328523  0.72945898  1.0
  Cl  Cl6  1  0.55929042  0.26170637  0.16592822  1.0
  Cl  Cl7  1  0.28487531  0.69219424  0.42850706  1.0
