# generated using pymatgen
data_NaCl
_symmetry_space_group_name_H-M   'P 1'
_cell_length_a   5.63812888
_cell_length_b   24.97096420
_cell_length_c   2.84032903
_cell_angle_alpha   90.00000000
_cell_angle_beta   90.00000000
_cell_angle_gamma   90.00000000
_symmetry_Int_Tables_number   1
_chemical_formula_structural   NaCl
_chemical_formula_sum   'Na4 Cl4'
_cell_volume   399.88854492
_cell_formula_units_Z   4
loop_
 _symmetry_equiv_pos_site_id
 _symmetry_equiv_pos_as_xyz
  1  'x, y, z'
loop_
 _atom_site_type_symbol
 _atom_site_label
 _atom_site_symmetry_multiplicity
 _atom_site_fract_x
 _atom_site_fract_y
 _atom_site_fract_z
 _atom_site_occupancy
  Na  Na0  1  0.91575705  0.12529156  0.77069144  1.0
  Na  Na1  1  0.62846777  0.29727755  0.19166514  1.0
  Na  Na2  1  0.29704724  0.93431184  0.29444311  1.0
  Na  Na3  1  0.71098198  0.26616030  0.64437772  1.0
  Cl  Cl4  1  0.13640046  0.65989022  0.26570960  1.0
  Cl  Cl5  1  0.27083376  0.45925123  0.22137971  1.0
  Cl  Cl6  1  0.42081160  0.73685577  0.91327602  1.0
  Cl  Cl7  1  0.23317646  0.29005772  0.41883988  1.0
