# generated using pymatgen
data_NaCl
_symmetry_space_group_name_H-M   'P 1'
_cell_length_a   4.87286065
_cell_length_b   4.87286065
_cell_length_c   4.87286065
_cell_angle_alpha   90.00000000
_cell_angle_beta   90.00000000
_cell_angle_gamma   90.00000000
_symmetry_Int_Tables_number   1
_chemical_formula_structural   NaCl
_chemical_formula_sum   'Na4 Cl4'
_cell_volume   115.70495983
_cell_formula_units_Z   4
loop_
 _symmetry_equiv_pos_site_id
 _symmetry_equiv_pos_as_xyz
  1  'x, y, z'
loop_
 _atom_site_type_symbol
 _atom_site_label
 _atom_site_symmetry_multiplicity
 _atom_site_fract_x
 _atom_site_fract_y
 _atom_site_fract_z
 _atom_site_occupancy
  Na  Na0  1  0.38724470  0.38724470  0.38724470  1.0
  Na  Na1  1  0.69317013  0.19317013  0.30682987  1.0
  Na  Na2  1  0.82032047  0.67967953  0.32032047  1.0
  Na  Na3  1  0.76098321  0.23901679  0.73901679  1.0
  Cl  Cl4  1  0.06713125  0.06713125  0.06713125  1.0
  Cl  Cl5  1  0.40468227  0.90468227  0.59531773  1.0
  Cl  Cl6  1  0.47503613  0.02496387  0.97503613  1.0
  Cl  Cl7  1  0.13165074  0.86834926  0.36834926  1.0
