# generated using pymatgen
data_NaCl
_symmetry_space_group_name_H-M   'P 1'
_cell_length_a   7.74485275
_cell_length_b   7.74485275
_cell_length_c   2.01006638
_cell_angle_alpha   90.00000000
_cell_angle_beta   90.00000000
_cell_angle_gamma   90.00000000
_symmetry_Int_Tables_number   1
_chemical_formula_structural   NaCl
_chemical_formula_sum   'Na4 Cl4'
_cell_volume   120.56929733
_cell_formula_units_Z   4
loop_
 _symmetry_equiv_pos_site_id
 _symmetry_equiv_pos_as_xyz
  1  'x, y, z'
loop_
 _atom_site_type_symbol
 _atom_site_label
 _atom_site_symmetry_multiplicity
 _atom_site_fract_x
 _atom_site_fract_y
 _atom_site_fract_z
 _atom_site_occupancy
  Na  Na0  1  0.96744510  0.28315870  0.72395048  1.0
  Na  Na1  1  0.47596804  0.15146230  0.15577639  1.0
  Na  Na2  1  0.65626864  0.29052494  0.99528087  1.0
  Na  Na3  1  0.46434801  0.89854830  0.67813125  1.0
  Cl  Cl4  1  0.27897370  0.89410655  0.14390300  1.0
  Cl  Cl5  1  0.90232287  0.49540089  0.16024532  1.0
  Cl  Cl6  1  0.77111736  0.63710678  0.36705797  1.0
  Cl  Cl7  1  0.34188762  0.28527502  0.07072277  1.0
