# generated using pymatgen
data_NaCl
_symmetry_space_group_name_H-M   'P 1'
_cell_length_a   3.73906846
_cell_length_b   10.82043329
_cell_length_c   7.48013221
_cell_angle_alpha   90.00000000
_cell_angle_beta   54.42216894
_cell_angle_gamma   90.00000000
_symmetry_Int_Tables_number   1
_chemical_formula_structural   NaCl
_chemical_formula_sum   'Na4 Cl4'
_cell_volume   246.13986854
_cell_formula_units_Z   4
loop_
 _symmetry_equiv_pos_site_id
 _symmetry_equiv_pos_as_xyz
  1  'x, y, z'
loop_
 _atom_site_type_symbol
 _atom_site_label
 _atom_site_symmetry_multiplicity
 _atom_site_fract_x
 _atom_site_fract_y
 _atom_site_fract_z
 _atom_site_occupancy
  Na  Na0  1  0.93997867  0.08783593  0.68262052  1.0
  Na  Na1  1  0.24156136  0.33844243  0.36631241  1.0
  Na  Na2  1  0.57729870  0.07603209  0.51992293  1.0
  Na  Na3  1  0.22677444  0.94972044  0.85333226  1.0
  Cl  Cl4  1  0.25456372  0.77672158  0.38505422  1.0
  Cl  Cl5  1  0.80472108  0.44335559  0.35691770  1.0
  Cl  Cl6  1  0.23278356  0.98699120  0.33772583  1.0
  Cl  Cl7  1  0.27876437  0.65378531  0.88966083  1.0
