# generated using pymatgen
data_NaCl
_symmetry_space_group_name_H-M   'P 1'
_cell_length_a   7.30719610
_cell_length_b   7.30719610
_cell_length_c   7.30719610
_cell_angle_alpha   90.00000000
_cell_angle_beta   90.00000000
_cell_angle_gamma   90.00000000
_symmetry_Int_Tables_number   1
_chemical_formula_structural   NaCl
_chemical_formula_sum   'Na4 Cl4'
_cell_volume   390.16857495
_cell_formula_units_Z   4
loop_
 _symmetry_equiv_pos_site_id
 _symmetry_equiv_pos_as_xyz
  1  'x, y, z'
loop_
 _atom_site_type_symbol
 _atom_site_label
 _atom_site_symmetry_multiplicity
 _atom_site_fract_x
 _atom_site_fract_y
 _atom_site_fract_z
 _atom_site_occupancy
  Na  Na0  1  0.98241261  0.98241261  0.98241261  1.0
  Na  Na1  1  0.23598138  0.73598138  0.76401862  1.0
  Na  Na2  1  0.51693411  0.98306589  0.01693411  1.0
  Na  Na3  1  0.89269900  0.10730100  0.60730100  1.0
  Cl  Cl4  1  0.39182252  0.39182252  0.39182252  1.0
  Cl  Cl5  1  0.38247257  0.88247257  0.61752743  1.0
  Cl  Cl6  1  0.12997960  0.37002040  0.62997960  1.0
  Cl  Cl7  1  0.46371777  0.53628223  0.03628223  1.0
