# generated using pymatgen
data_NaCl
_symmetry_space_group_name_H-M   'P 1'
_cell_length_a   3.26349332
_cell_length_b   3.26349332
_cell_length_c   19.22446262
_cell_angle_alpha   90.00000000
_cell_angle_beta   90.00000000
_cell_angle_gamma   90.00000000
_symmetry_Int_Tables_number   1
_chemical_formula_structural   NaCl
_chemical_formula_sum   'Na4 Cl4'
_cell_volume   204.74799848
_cell_formula_units_Z   4
loop_
 _symmetry_equiv_pos_site_id
 _symmetry_equiv_pos_as_xyz
  1  'x, y, z'
loop_
 _atom_site_type_symbol
 _atom_site_label
 _atom_site_symmetry_multiplicity
 _atom_site_fract_x
 _atom_site_fract_y
 _atom_site_fract_z
 _atom_site_occupancy
  Na  Na0  1  0.72575606  0.72575606  0.94187627  1.0
  Na  Na1  1  0.30901350  0.30901350  0.20239391  1.0
  Na  Na2  1  0.59886516  0.40113484  0.85899480  1.0
  Na  Na3  1  0.53705394  0.46294606  0.07157242  1.0
  Cl  Cl4  1  0.16413839  0.16413839  0.43147045  1.0
  Cl  Cl5  1  0.40994529  0.40994529  0.39719016  1.0
  Cl  Cl6  1  0.78718331  0.21281669  0.73134408  1.0
  Cl  Cl7  1  0.07745299  0.92254701  0.26660605  1.0
