# generated using pymatgen
data_NaCl
_symmetry_space_group_name_H-M   'P 1'
_cell_length_a   2.52411705
_cell_length_b   4.39209923
_cell_length_c   15.49767295
_cell_angle_alpha   90.00000000
_cell_angle_beta   116.04122060
_cell_angle_gamma   90.00000000
_symmetry_Int_Tables_number   1
_chemical_formula_structural   NaCl
_chemical_formula_sum   'Na4 Cl4'
_cell_volume   154.36746878
_cell_formula_units_Z   4
loop_
 _symmetry_equiv_pos_site_id
 _symmetry_equiv_pos_as_xyz
  1  'x, y, z'
loop_
 _atom_site_type_symbol
 _atom_site_label
 _atom_site_symmetry_multiplicity
 _atom_site_fract_x
 _atom_site_fract_y
 _atom_site_fract_z
 _atom_site_occupancy
  Na  Na0  1  0.99638596  0.96497016  0.75360996  1.0
  Na  Na1  1  0.47558203  0.64225368  0.73010709  1.0
  Na  Na2  1  0.81865034  0.48320366  0.29060940  1.0
  Na  Na3  1  0.90885219  0.98617032  0.41071408  1.0
  Cl  Cl4  1  0.10975737  0.23188732  0.70246564  1.0
  Cl  Cl5  1  0.63255853  0.92664192  0.46637345  1.0
  Cl  Cl6  1  0.76863733  0.43284589  0.14121075  1.0
  Cl  Cl7  1  0.07886083  0.80759945  0.11771834  1.0
