# generated using pymatgen
data_NaCl
_symmetry_space_group_name_H-M   'P 1'
_cell_length_a   2.51552039
_cell_length_b   8.79118341
_cell_length_c   19.35849248
_cell_angle_alpha   90.00000000
_cell_angle_beta   121.31510501
_cell_angle_gamma   90.00000000
_symmetry_Int_Tables_number   1
_chemical_formula_structural   NaCl
_chemical_formula_sum   'Na4 Cl4'
_cell_volume   365.73643302
_cell_formula_units_Z   4
loop_
 _symmetry_equiv_pos_site_id
 _symmetry_equiv_pos_as_xyz
  1  'x, y, z'
loop_
 _atom_site_type_symbol
 _atom_site_label
 _atom_site_symmetry_multiplicity
 _atom_site_fract_x
 _atom_site_fract_y
 _atom_site_fract_z
 _atom_site_occupancy
  Na  Na0  1  0.85473999  0.73926008  0.90679121  1.0
  Na  Na1  1  0.39803477  0.45754434  0.02453931  1.0
  Na  Na2  1  0.28840033  0.10595216  0.37158120  1.0
  Na  Na3  1  0.55162928  0.24473134  0.48728455  1.0
  Cl  Cl4  1  0.16658453  0.05026376  0.71892355  1.0
  Cl  Cl5  1  0.62152813  0.72574514  0.47241829  1.0
  Cl  Cl6  1  0.12248269  0.00488214  0.16015145  1.0
  Cl  Cl7  1  0.24823064  0.22809068  0.93250645  1.0
