# generated using pymatgen
data_NaCl
_symmetry_space_group_name_H-M   'P 1'
_cell_length_a   3.53302648
_cell_length_b   3.50897361
_cell_length_c   17.49010923
_cell_angle_alpha   90.00000000
_cell_angle_beta   90.00000000
_cell_angle_gamma   90.00000000
_symmetry_Int_Tables_number   1
_chemical_formula_structural   NaCl
_chemical_formula_sum   'Na4 Cl4'
_cell_volume   216.83007312
_cell_formula_units_Z   4
loop_
 _symmetry_equiv_pos_site_id
 _symmetry_equiv_pos_as_xyz
  1  'x, y, z'
loop_
 _atom_site_type_symbol
 _atom_site_label
 _atom_site_symmetry_multiplicity
 _atom_site_fract_x
 _atom_site_fract_y
 _atom_site_fract_z
 _atom_site_occupancy
  Na  Na0  1  0.93666772  0.66607481  0.74106834  1.0
  Na  Na1  1  0.26704589  0.00074329  0.59637293  1.0
  Na  Na2  1  0.96383810  0.26250388  0.64173682  1.0
  Na  Na3  1  0.60364901  0.37309849  0.47868818  1.0
  Cl  Cl4  1  0.00000000  0.34929284  0.86983367  1.0
  Cl  Cl5  1  0.50000000  0.58959508  0.12168271  1.0
  Cl  Cl6  1  0.00000000  0.77064296  0.03578942  1.0
  Cl  Cl7  1  0.50000000  0.98205525  0.29973705  1.0
