# generated using pymatgen
data_NaCl
_symmetry_space_group_name_H-M   'P 1'
_cell_length_a   2.03945405
_cell_length_b   2.96431117
_cell_length_c   20.85033077
_cell_angle_alpha   90.00000000
_cell_angle_beta   64.19799195
_cell_angle_gamma   90.00000000
_symmetry_Int_Tables_number   1
_chemical_formula_structural   NaCl
_chemical_formula_sum   'Na4 Cl4'
_cell_volume   113.48530031
_cell_formula_units_Z   4
loop_
 _symmetry_equiv_pos_site_id
 _symmetry_equiv_pos_as_xyz
  1  'x, y, z'
loop_
 _atom_site_type_symbol
 _atom_site_label
 _atom_site_symmetry_multiplicity
 _atom_site_fract_x
 _atom_site_fract_y
 _atom_site_fract_z
 _atom_site_occupancy
  Na  Na0  1  0.94702742  0.79258028  0.90087247  1.0
  Na  Na1  1  0.49432900  0.54233521  0.13308988  1.0
  Na  Na2  1  0.31155102  0.29301569  0.31537187  1.0
  Na  Na3  1  0.80333507  0.09162089  0.58213686  1.0
  Cl  Cl4  1  0.17293134  0.00000000  0.77516086  1.0
  Cl  Cl5  1  0.81215918  0.50000000  0.57170202  1.0
  Cl  Cl6  1  0.73938272  0.00000000  0.09374976  1.0
  Cl  Cl7  1  0.11979596  0.50000000  0.99992730  1.0
