# generated using pymatgen
data_NaCl
_symmetry_space_group_name_H-M   'P 1'
_cell_length_a   3.49236200
_cell_length_b   3.49236200
_cell_length_c   19.81554160
_cell_angle_alpha   90.00000000
_cell_angle_beta   90.00000000
_cell_angle_gamma   90.00000000
_symmetry_Int_Tables_number   1
_chemical_formula_structural   NaCl
_chemical_formula_sum   'Na4 Cl4'
_cell_volume   241.68208287
_cell_formula_units_Z   4
loop_
 _symmetry_equiv_pos_site_id
 _symmetry_equiv_pos_as_xyz
  1  'x, y, z'
loop_
 _atom_site_type_symbol
 _atom_site_label
 _atom_site_symmetry_multiplicity
 _atom_site_fract_x
 _atom_site_fract_y
 _atom_site_fract_z
 _atom_site_occupancy
  Na  Na0  1  0.91914811  0.62238102  0.78089230  1.0
  Na  Na1  1  0.41360504  0.23149446  0.56227613  1.0
  Na  Na2  1  0.16652135  0.68801604  0.84131692  1.0
  Na  Na3  1  0.49927037  0.94830743  0.85020534  1.0
  Cl  Cl4  1  0.49704736  0.00109509  0.43898514  1.0
  Cl  Cl5  1  0.05453136  0.89064990  0.90765509  1.0
  Cl  Cl6  1  0.64084563  0.70271583  0.81971922  1.0
  Cl  Cl7  1  0.23811242  0.18956129  0.23084390  1.0
