# generated using pymatgen
data_NaCl
_symmetry_space_group_name_H-M   'P 1'
_cell_length_a   2.01751213
_cell_length_b   8.65683022
_cell_length_c   17.46893747
_cell_angle_alpha   90.00000000
_cell_angle_beta   88.92205905
_cell_angle_gamma   90.00000000
_symmetry_Int_Tables_number   1
_chemical_formula_structural   NaCl
_chemical_formula_sum   'Na4 Cl4'
_cell_volume   305.04554068
_cell_formula_units_Z   4
loop_
 _symmetry_equiv_pos_site_id
 _symmetry_equiv_pos_as_xyz
  1  'x, y, z'
loop_
 _atom_site_type_symbol
 _atom_site_label
 _atom_site_symmetry_multiplicity
 _atom_site_fract_x
 _atom_site_fract_y
 _atom_site_fract_z
 _atom_site_occupancy
  Na  Na0  1  0.93346644  0.70114572  0.71429865  1.0
  Na  Na1  1  0.54357506  0.49021632  0.54349379  1.0
  Na  Na2  1  0.89706475  0.68363771  0.29794424  1.0
  Na  Na3  1  0.08387922  0.57410036  0.01625988  1.0
  Cl  Cl4  1  0.14935919  0.10236832  0.58358562  1.0
  Cl  Cl5  1  0.55583746  0.63424599  0.06657580  1.0
  Cl  Cl6  1  0.63769408  0.41998127  0.18487970  1.0
  Cl  Cl7  1  0.76314729  0.87802306  0.46313448  1.0
