# generated using pymatgen
data_NaCl
_symmetry_space_group_name_H-M   'P 1'
_cell_length_a   2.94250790
_cell_length_b   2.94250790
_cell_length_c   18.72408559
_cell_angle_alpha   90.00000000
_cell_angle_beta   90.00000000
_cell_angle_gamma   90.00000000
_symmetry_Int_Tables_number   1
_chemical_formula_structural   NaCl
_chemical_formula_sum   'Na4 Cl4'
_cell_volume   162.11973780
_cell_formula_units_Z   4
loop_
 _symmetry_equiv_pos_site_id
 _symmetry_equiv_pos_as_xyz
  1  'x, y, z'
loop_
 _atom_site_type_symbol
 _atom_site_label
 _atom_site_symmetry_multiplicity
 _atom_site_fract_x
 _atom_site_fract_y
 _atom_site_fract_z
 _atom_site_occupancy
  Na  Na0  1  0.94369648  0.66377131  0.79185685  1.0
  Na  Na1  1  0.77660824  0.00057297  0.60647047  1.0
  Na  Na2  1  0.16857019  0.52571509  0.39912888  1.0
  Na  Na3  1  0.24998668  0.61104165  0.98990233  1.0
  Cl  Cl4  1  0.43157110  0.48838078  0.85337570  1.0
  Cl  Cl5  1  0.81812322  0.62583221  0.17602010  1.0
  Cl  Cl6  1  0.11937218  0.86285885  0.25081482  1.0
  Cl  Cl7  1  0.06110889  0.01869539  0.52765489  1.0
