# generated using pymatgen
data_NaCl
_symmetry_space_group_name_H-M   'P 1'
_cell_length_a   3.15309589
_cell_length_b   3.15309589
_cell_length_c   18.89931512
_cell_angle_alpha   90.00000000
_cell_angle_beta   90.00000000
_cell_angle_gamma   90.00000000
_symmetry_Int_Tables_number   1
_chemical_formula_structural   NaCl
_chemical_formula_sum   'Na4 Cl4'
_cell_volume   187.89724968
_cell_formula_units_Z   4
loop_
 _symmetry_equiv_pos_site_id
 _symmetry_equiv_pos_as_xyz
  1  'x, y, z'
loop_
 _atom_site_type_symbol
 _atom_site_label
 _atom_site_symmetry_multiplicity
 _atom_site_fract_x
 _atom_site_fract_y
 _atom_site_fract_z
 _atom_site_occupancy
  Na  Na0  1  0.00000000  0.50000000  0.55417779  1.0
  Na  Na1  1  0.00000000  0.50000000  0.62542733  1.0
  Na  Na2  1  0.50000000  0.00000000  0.85264442  1.0
  Na  Na3  1  0.50000000  0.00000000  0.45812014  1.0
  Cl  Cl4  1  0.01284016  0.01284016  0.66546464  1.0
  Cl  Cl5  1  0.55295664  0.55295664  0.35478080  1.0
  Cl  Cl6  1  0.55432451  0.44567549  0.06072662  1.0
  Cl  Cl7  1  0.74936111  0.25063889  0.23798847  1.0
