# generated using pymatgen
data_NaCl
_symmetry_space_group_name_H-M   'P 1'
_cell_length_a   3.45936889
_cell_length_b   2.99115379
_cell_length_c   18.68145471
_cell_angle_alpha   90.00000000
_cell_angle_beta   65.25121851
_cell_angle_gamma   90.00000000
_symmetry_Int_Tables_number   1
_chemical_formula_structural   NaCl
_chemical_formula_sum   'Na4 Cl4'
_cell_volume   175.55163975
_cell_formula_units_Z   4
loop_
 _symmetry_equiv_pos_site_id
 _symmetry_equiv_pos_as_xyz
  1  'x, y, z'
loop_
 _atom_site_type_symbol
 _atom_site_label
 _atom_site_symmetry_multiplicity
 _atom_site_fract_x
 _atom_site_fract_y
 _atom_site_fract_z
 _atom_site_occupancy
  Na  Na0  1  0.97748133  0.54539965  0.80031222  1.0
  Na  Na1  1  0.78257983  0.49940349  0.99874576  1.0
  Na  Na2  1  0.61359837  0.85800340  0.12190470  1.0
  Na  Na3  1  0.61589229  0.81635182  0.50620763  1.0
  Cl  Cl4  1  0.31071082  0.39871763  0.79893029  1.0
  Cl  Cl5  1  0.93896698  0.89128003  0.39201717  1.0
  Cl  Cl6  1  0.89530583  0.89758414  0.03684303  1.0
  Cl  Cl7  1  0.05774911  0.55493985  0.24719617  1.0
