# generated using pymatgen
data_NaCl
_symmetry_space_group_name_H-M   'P 1'
_cell_length_a   2.92345185
_cell_length_b   4.81191303
_cell_length_c   18.94322601
_cell_angle_alpha   90.00000000
_cell_angle_beta   50.64814714
_cell_angle_gamma   90.00000000
_symmetry_Int_Tables_number   1
_chemical_formula_structural   NaCl
_chemical_formula_sum   'Na4 Cl4'
_cell_volume   206.06154561
_cell_formula_units_Z   4
loop_
 _symmetry_equiv_pos_site_id
 _symmetry_equiv_pos_as_xyz
  1  'x, y, z'
loop_
 _atom_site_type_symbol
 _atom_site_label
 _atom_site_symmetry_multiplicity
 _atom_site_fract_x
 _atom_site_fract_y
 _atom_site_fract_z
 _atom_site_occupancy
  Na  Na0  1  0.96572405  0.61876137  0.72485161  1.0
  Na  Na1  1  0.28607506  0.03503302  0.57804563  1.0
  Na  Na2  1  0.46119229  0.84868958  0.11305796  1.0
  Na  Na3  1  0.43572907  0.69645120  0.82179646  1.0
  Cl  Cl4  1  0.35538082  0.29971324  0.87592012  1.0
  Cl  Cl5  1  0.19743625  0.58529065  0.05372122  1.0
  Cl  Cl6  1  0.96438015  0.86760212  0.02053153  1.0
  Cl  Cl7  1  0.93292136  0.98258235  0.24303189  1.0
