# generated using pymatgen
data_NaCl
_symmetry_space_group_name_H-M   'P 1'
_cell_length_a   3.44580969
_cell_length_b   3.44580969
_cell_length_c   19.21981899
_cell_angle_alpha   90.00000000
_cell_angle_beta   90.00000000
_cell_angle_gamma   90.00000000
_symmetry_Int_Tables_number   1
_chemical_formula_structural   NaCl
_chemical_formula_sum   'Na4 Cl4'
_cell_volume   228.20852771
_cell_formula_units_Z   4
loop_
 _symmetry_equiv_pos_site_id
 _symmetry_equiv_pos_as_xyz
  1  'x, y, z'
loop_
 _atom_site_type_symbol
 _atom_site_label
 _atom_site_symmetry_multiplicity
 _atom_site_fract_x
 _atom_site_fract_y
 _atom_site_fract_z
 _atom_site_occupancy
  Na  Na0  1  0.76019759  0.79016052  0.68771687  1.0
  Na  Na1  1  0.67512656  0.20286937  0.66781684  1.0
  Na  Na2  1  0.50749897  0.78593147  0.52734842  1.0
  Na  Na3  1  0.45903862  0.77622800  0.31624713  1.0
  Cl  Cl4  1  0.24141569  0.08252833  0.61287863  1.0
  Cl  Cl5  1  0.53504515  0.42910848  0.95677241  1.0
  Cl  Cl6  1  0.46067201  0.77655856  0.44148131  1.0
  Cl  Cl7  1  0.30066648  0.09323667  0.73278228  1.0
