# generated using pymatgen
data_NaCl
_symmetry_space_group_name_H-M   'P 1'
_cell_length_a   2.02079186
_cell_length_b   5.52632622
_cell_length_c   20.38676893
_cell_angle_alpha   90.00000000
_cell_angle_beta   90.00000000
_cell_angle_gamma   90.00000000
_symmetry_Int_Tables_number   1
_chemical_formula_structural   NaCl
_chemical_formula_sum   'Na4 Cl4'
_cell_volume   227.67036414
_cell_formula_units_Z   4
loop_
 _symmetry_equiv_pos_site_id
 _symmetry_equiv_pos_as_xyz
  1  'x, y, z'
loop_
 _atom_site_type_symbol
 _atom_site_label
 _atom_site_symmetry_multiplicity
 _atom_site_fract_x
 _atom_site_fract_y
 _atom_site_fract_z
 _atom_site_occupancy
  Na  Na0  1  0.60408184  0.83476431  0.92717776  1.0
  Na  Na1  1  0.55751355  0.22878177  0.12811724  1.0
  Na  Na2  1  0.79487235  0.36404434  0.82642699  1.0
  Na  Na3  1  0.86316106  0.25278758  0.53089389  1.0
  Cl  Cl4  1  0.00000000  0.14760807  0.42815530  1.0
  Cl  Cl5  1  0.00000000  0.67284862  0.95305456  1.0
  Cl  Cl6  1  0.00000000  0.51051454  0.11915192  1.0
  Cl  Cl7  1  0.00000000  0.74081509  0.43950855  1.0
