# generated using pymatgen
data_NaCl
_symmetry_space_group_name_H-M   'P 1'
_cell_length_a   3.68585136
_cell_length_b   2.01244509
_cell_length_c   19.52650300
_cell_angle_alpha   90.00000000
_cell_angle_beta   90.00000000
_cell_angle_gamma   90.00000000
_symmetry_Int_Tables_number   1
_chemical_formula_structural   NaCl
_chemical_formula_sum   'Na4 Cl4'
_cell_volume   144.83927065
_cell_formula_units_Z   4
loop_
 _symmetry_equiv_pos_site_id
 _symmetry_equiv_pos_as_xyz
  1  'x, y, z'
loop_
 _atom_site_type_symbol
 _atom_site_label
 _atom_site_symmetry_multiplicity
 _atom_site_fract_x
 _atom_site_fract_y
 _atom_site_fract_z
 _atom_site_occupancy
  Na  Na0  1  0.99702306  0.53113340  0.75881913  1.0
  Na  Na1  1  0.80053788  0.06708160  0.50037266  1.0
  Na  Na2  1  0.06203830  0.18953674  0.07064279  1.0
  Na  Na3  1  0.07508503  0.30354827  0.97202180  1.0
  Cl  Cl4  1  0.35600958  0.44399611  0.83826128  1.0
  Cl  Cl5  1  0.90169474  0.63883609  0.13999259  1.0
  Cl  Cl6  1  0.34098516  0.19839920  0.02625640  1.0
  Cl  Cl7  1  0.52615485  0.04615451  0.17618148  1.0
