# generated using pymatgen
data_NaCl
_symmetry_space_group_name_H-M   'P 1'
_cell_length_a   2.88875161
_cell_length_b   5.23925379
_cell_length_c   20.01785901
_cell_angle_alpha   90.00000000
_cell_angle_beta   61.72182995
_cell_angle_gamma   90.00000000
_symmetry_Int_Tables_number   1
_chemical_formula_structural   NaCl
_chemical_formula_sum   'Na4 Cl4'
_cell_volume   266.81147744
_cell_formula_units_Z   4
loop_
 _symmetry_equiv_pos_site_id
 _symmetry_equiv_pos_as_xyz
  1  'x, y, z'
loop_
 _atom_site_type_symbol
 _atom_site_label
 _atom_site_symmetry_multiplicity
 _atom_site_fract_x
 _atom_site_fract_y
 _atom_site_fract_z
 _atom_site_occupancy
  Na  Na0  1  0.99966692  0.59382016  0.69891066  1.0
  Na  Na1  1  0.71816850  0.44979896  0.93165526  1.0
  Na  Na2  1  0.56913390  0.78541493  0.09213112  1.0
  Na  Na3  1  0.44212603  0.78459907  0.57328108  1.0
  Cl  Cl4  1  0.32813280  0.33286477  0.95419568  1.0
  Cl  Cl5  1  0.92493761  0.83737562  0.39638766  1.0
  Cl  Cl6  1  0.87248196  0.79824124  0.00027059  1.0
  Cl  Cl7  1  0.02004994  0.59736861  0.30211162  1.0
