# generated using pymatgen
data_NaCl
_symmetry_space_group_name_H-M   'P 1'
_cell_length_a   2.91759721
_cell_length_b   4.34674750
_cell_length_c   19.80765434
_cell_angle_alpha   90.00000000
_cell_angle_beta   121.06898271
_cell_angle_gamma   90.00000000
_symmetry_Int_Tables_number   1
_chemical_formula_structural   NaCl
_chemical_formula_sum   'Na4 Cl4'
_cell_volume   215.16606886
_cell_formula_units_Z   4
loop_
 _symmetry_equiv_pos_site_id
 _symmetry_equiv_pos_as_xyz
  1  'x, y, z'
loop_
 _atom_site_type_symbol
 _atom_site_label
 _atom_site_symmetry_multiplicity
 _atom_site_fract_x
 _atom_site_fract_y
 _atom_site_fract_z
 _atom_site_occupancy
  Na  Na0  1  0.84846015  0.69690596  0.77090922  1.0
  Na  Na1  1  0.47187056  0.62902666  0.34904413  1.0
  Na  Na2  1  0.08041577  0.27548066  0.73695196  1.0
  Na  Na3  1  0.22838668  0.68512318  0.07317888  1.0
  Cl  Cl4  1  0.58425197  0.80656048  0.63044085  1.0
  Cl  Cl5  1  0.63577200  0.45650968  0.02560041  1.0
  Cl  Cl6  1  0.27850835  0.46818506  0.78850518  1.0
  Cl  Cl7  1  0.98083959  0.77996482  0.48228762  1.0
