# generated using pymatgen
data_NaCl
_symmetry_space_group_name_H-M   'P 1'
_cell_length_a   2.90486861
_cell_length_b   5.74277192
_cell_length_c   19.42777600
_cell_angle_alpha   90.00000000
_cell_angle_beta   90.00000000
_cell_angle_gamma   90.00000000
_symmetry_Int_Tables_number   1
_chemical_formula_structural   NaCl
_chemical_formula_sum   'Na4 Cl4'
_cell_volume   324.09411814
_cell_formula_units_Z   4
loop_
 _symmetry_equiv_pos_site_id
 _symmetry_equiv_pos_as_xyz
  1  'x, y, z'
loop_
 _atom_site_type_symbol
 _atom_site_label
 _atom_site_symmetry_multiplicity
 _atom_site_fract_x
 _atom_site_fract_y
 _atom_site_fract_z
 _atom_site_occupancy
  Na  Na0  1  0.21334454  0.67176517  0.75328756  1.0
  Na  Na1  1  0.89023089  0.07495394  0.54984228  1.0
  Na  Na2  1  0.03273161  0.26145000  0.63483890  1.0
  Na  Na3  1  0.00211847  0.31922818  0.91949845  1.0
  Cl  Cl4  1  0.34258977  0.56311205  0.80777026  1.0
  Cl  Cl5  1  0.78935774  0.62002323  0.20422359  1.0
  Cl  Cl6  1  0.45332555  0.13839698  0.03710460  1.0
  Cl  Cl7  1  0.38267870  0.06350945  0.25321620  1.0
