# generated using pymatgen
data_NaCl
_symmetry_space_group_name_H-M   'P 1'
_cell_length_a   3.34548933
_cell_length_b   3.80984821
_cell_length_c   16.44686423
_cell_angle_alpha   90.00000000
_cell_angle_beta   90.00000000
_cell_angle_gamma   90.00000000
_symmetry_Int_Tables_number   1
_chemical_formula_structural   NaCl
_chemical_formula_sum   'Na4 Cl4'
_cell_volume   209.62854959
_cell_formula_units_Z   4
loop_
 _symmetry_equiv_pos_site_id
 _symmetry_equiv_pos_as_xyz
  1  'x, y, z'
loop_
 _atom_site_type_symbol
 _atom_site_label
 _atom_site_symmetry_multiplicity
 _atom_site_fract_x
 _atom_site_fract_y
 _atom_site_fract_z
 _atom_site_occupancy
  Na  Na0  1  0.99953993  0.00000000  0.69821685  1.0
  Na  Na1  1  0.66773505  0.00000000  0.09692325  1.0
  Na  Na2  1  0.94097109  0.50000000  0.62799547  1.0
  Na  Na3  1  0.00168075  0.50000000  0.04427835  1.0
  Cl  Cl4  1  0.38038847  0.00000000  0.88133502  1.0
  Cl  Cl5  1  0.98205597  0.00000000  0.58117091  1.0
  Cl  Cl6  1  0.40370624  0.50000000  0.53590195  1.0
  Cl  Cl7  1  0.52957751  0.50000000  0.28785943  1.0
