# generated using pymatgen
data_NaCl
_symmetry_space_group_name_H-M   'P 1'
_cell_length_a   3.40629562
_cell_length_b   3.40629562
_cell_length_c   18.68141894
_cell_angle_alpha   90.00000000
_cell_angle_beta   90.00000000
_cell_angle_gamma   90.00000000
_symmetry_Int_Tables_number   1
_chemical_formula_structural   NaCl
_chemical_formula_sum   'Na4 Cl4'
_cell_volume   216.75769896
_cell_formula_units_Z   4
loop_
 _symmetry_equiv_pos_site_id
 _symmetry_equiv_pos_as_xyz
  1  'x, y, z'
loop_
 _atom_site_type_symbol
 _atom_site_label
 _atom_site_symmetry_multiplicity
 _atom_site_fract_x
 _atom_site_fract_y
 _atom_site_fract_z
 _atom_site_occupancy
  Na  Na0  1  0.99887806  0.50000000  0.99881496  1.0
  Na  Na1  1  0.54437600  0.50000000  0.11753908  1.0
  Na  Na2  1  0.50000000  0.26155231  0.85155032  1.0
  Na  Na3  1  0.50000000  0.33079523  0.47360433  1.0
  Cl  Cl4  1  0.14615932  0.50000000  0.70044360  1.0
  Cl  Cl5  1  0.42560753  0.50000000  0.57132051  1.0
  Cl  Cl6  1  0.50000000  0.34181454  0.61113786  1.0
  Cl  Cl7  1  0.50000000  0.70744096  0.05029673  1.0
