# generated using pymatgen
data_NaCl
_symmetry_space_group_name_H-M   'P 1'
_cell_length_a   4.17652922
_cell_length_b   5.18514967
_cell_length_c   18.12617765
_cell_angle_alpha   90.00000000
_cell_angle_beta   90.00000000
_cell_angle_gamma   90.00000000
_symmetry_Int_Tables_number   1
_chemical_formula_structural   NaCl
_chemical_formula_sum   'Na4 Cl4'
_cell_volume   392.53921817
_cell_formula_units_Z   4
loop_
 _symmetry_equiv_pos_site_id
 _symmetry_equiv_pos_as_xyz
  1  'x, y, z'
loop_
 _atom_site_type_symbol
 _atom_site_label
 _atom_site_symmetry_multiplicity
 _atom_site_fract_x
 _atom_site_fract_y
 _atom_site_fract_z
 _atom_site_occupancy
  Na  Na0  1  0.00000000  0.50000000  0.76387092  1.0
  Na  Na1  1  0.50000000  0.00000000  0.90890631  1.0
  Na  Na2  1  0.00000000  0.50000000  0.09066631  1.0
  Na  Na3  1  0.50000000  0.00000000  0.54006964  1.0
  Cl  Cl4  1  0.33771809  0.32549917  0.73851336  1.0
  Cl  Cl5  1  0.82051807  0.67576736  0.61625045  1.0
  Cl  Cl6  1  0.55113522  0.40451930  0.96015185  1.0
  Cl  Cl7  1  0.46860616  0.47982914  0.26957200  1.0
