# generated using pymatgen
data_NaCl
_symmetry_space_group_name_H-M   'P 1'
_cell_length_a   2.02714122
_cell_length_b   9.24739050
_cell_length_c   20.25176849
_cell_angle_alpha   90.00000000
_cell_angle_beta   84.10796554
_cell_angle_gamma   90.00000000
_symmetry_Int_Tables_number   1
_chemical_formula_structural   NaCl
_chemical_formula_sum   'Na4 Cl4'
_cell_volume   377.62934851
_cell_formula_units_Z   4
loop_
 _symmetry_equiv_pos_site_id
 _symmetry_equiv_pos_as_xyz
  1  'x, y, z'
loop_
 _atom_site_type_symbol
 _atom_site_label
 _atom_site_symmetry_multiplicity
 _atom_site_fract_x
 _atom_site_fract_y
 _atom_site_fract_z
 _atom_site_occupancy
  Na  Na0  1  0.91505790  0.57221129  0.76035575  1.0
  Na  Na1  1  0.53249985  0.21727389  0.96209721  1.0
  Na  Na2  1  0.85230899  0.84588029  0.12326108  1.0
  Na  Na3  1  0.22062847  0.91593871  0.47426125  1.0
  Cl  Cl4  1  0.31223219  0.25092429  0.52151003  1.0
  Cl  Cl5  1  0.67285118  0.03167185  0.45600775  1.0
  Cl  Cl6  1  0.73367588  0.56349074  0.38821640  1.0
  Cl  Cl7  1  0.19080132  0.96197661  0.30622762  1.0
