# generated using pymatgen
data_NaCl
_symmetry_space_group_name_H-M   'P 1'
_cell_length_a   4.19588109
_cell_length_b   3.23884670
_cell_length_c   22.39237055
_cell_angle_alpha   90.00000000
_cell_angle_beta   90.00000000
_cell_angle_gamma   90.00000000
_symmetry_Int_Tables_number   1
_chemical_formula_structural   NaCl
_chemical_formula_sum   'Na4 Cl4'
_cell_volume   304.30818711
_cell_formula_units_Z   4
loop_
 _symmetry_equiv_pos_site_id
 _symmetry_equiv_pos_as_xyz
  1  'x, y, z'
loop_
 _atom_site_type_symbol
 _atom_site_label
 _atom_site_symmetry_multiplicity
 _atom_site_fract_x
 _atom_site_fract_y
 _atom_site_fract_z
 _atom_site_occupancy
  Na  Na0  1  0.90998192  0.50000000  0.95035995  1.0
  Na  Na1  1  0.61453916  0.50000000  0.03893092  1.0
  Na  Na2  1  0.88981868  0.50000000  0.20442249  1.0
  Na  Na3  1  0.64935645  0.50000000  0.62272299  1.0
  Cl  Cl4  1  0.00000000  0.00000000  0.64402672  1.0
  Cl  Cl5  1  0.00000000  0.00000000  0.50331127  1.0
  Cl  Cl6  1  0.50000000  0.50000000  0.18671833  1.0
  Cl  Cl7  1  0.50000000  0.50000000  0.86397294  1.0
