# generated using pymatgen
data_NaCl
_symmetry_space_group_name_H-M   'P 1'
_cell_length_a   3.39416963
_cell_length_b   3.44803815
_cell_length_c   18.47262431
_cell_angle_alpha   90.00000000
_cell_angle_beta   53.63427019
_cell_angle_gamma   90.00000000
_symmetry_Int_Tables_number   1
_chemical_formula_structural   NaCl
_chemical_formula_sum   'Na4 Cl4'
_cell_volume   174.08613298
_cell_formula_units_Z   4
loop_
 _symmetry_equiv_pos_site_id
 _symmetry_equiv_pos_as_xyz
  1  'x, y, z'
loop_
 _atom_site_type_symbol
 _atom_site_label
 _atom_site_symmetry_multiplicity
 _atom_site_fract_x
 _atom_site_fract_y
 _atom_site_fract_z
 _atom_site_occupancy
  Na  Na0  1  0.43908295  0.45833528  0.73333841  1.0
  Na  Na1  1  0.17091521  0.11225720  0.50117513  1.0
  Na  Na2  1  0.83043414  0.37571715  0.06109710  1.0
  Na  Na3  1  0.96051003  0.22281820  0.71925668  1.0
  Cl  Cl4  1  0.32477852  0.49282836  0.83625481  1.0
  Cl  Cl5  1  0.11107944  0.65568265  0.11561796  1.0
  Cl  Cl6  1  0.42348735  0.31756206  0.05280845  1.0
  Cl  Cl7  1  0.49760882  0.43096167  0.29268127  1.0
