# generated using pymatgen
data_NaCl
_symmetry_space_group_name_H-M   'P 1'
_cell_length_a   2.57317805
_cell_length_b   2.57317805
_cell_length_c   20.20386302
_cell_angle_alpha   90.00000000
_cell_angle_beta   90.00000000
_cell_angle_gamma   90.00000000
_symmetry_Int_Tables_number   1
_chemical_formula_structural   NaCl
_chemical_formula_sum   'Na4 Cl4'
_cell_volume   133.77473260
_cell_formula_units_Z   4
loop_
 _symmetry_equiv_pos_site_id
 _symmetry_equiv_pos_as_xyz
  1  'x, y, z'
loop_
 _atom_site_type_symbol
 _atom_site_label
 _atom_site_symmetry_multiplicity
 _atom_site_fract_x
 _atom_site_fract_y
 _atom_site_fract_z
 _atom_site_occupancy
  Na  Na0  1  0.50000000  0.00000000  0.75336263  1.0
  Na  Na1  1  0.00000000  0.50000000  0.73609447  1.0
  Na  Na2  1  0.50000000  0.00000000  0.27089645  1.0
  Na  Na3  1  0.00000000  0.50000000  0.14054331  1.0
  Cl  Cl4  1  0.40360481  0.90360481  0.80403425  1.0
  Cl  Cl5  1  0.89467640  0.39467640  0.54289893  1.0
  Cl  Cl6  1  0.94789558  0.55210442  0.32873804  1.0
  Cl  Cl7  1  0.05186062  0.44813938  0.86685179  1.0
