# generated using pymatgen
data_NaCl
_symmetry_space_group_name_H-M   'P 1'
_cell_length_a   2.53931568
_cell_length_b   9.12788137
_cell_length_c   17.43350833
_cell_angle_alpha   90.00000000
_cell_angle_beta   75.33796520
_cell_angle_gamma   90.00000000
_symmetry_Int_Tables_number   1
_chemical_formula_structural   NaCl
_chemical_formula_sum   'Na4 Cl4'
_cell_volume   390.92511981
_cell_formula_units_Z   4
loop_
 _symmetry_equiv_pos_site_id
 _symmetry_equiv_pos_as_xyz
  1  'x, y, z'
loop_
 _atom_site_type_symbol
 _atom_site_label
 _atom_site_symmetry_multiplicity
 _atom_site_fract_x
 _atom_site_fract_y
 _atom_site_fract_z
 _atom_site_occupancy
  Na  Na0  1  0.81781048  0.80104145  0.80900465  1.0
  Na  Na1  1  0.37656285  0.44850181  0.61067534  1.0
  Na  Na2  1  0.15200885  0.30939506  0.13554482  1.0
  Na  Na3  1  0.58366562  0.05617143  0.10861253  1.0
  Cl  Cl4  1  0.10374344  0.20257772  0.62602894  1.0
  Cl  Cl5  1  0.63210244  0.66343926  0.00632169  1.0
  Cl  Cl6  1  0.15219533  0.00230130  0.16947843  1.0
  Cl  Cl7  1  0.23203094  0.29937635  0.41648177  1.0
