# generated using pymatgen
data_NaCl
_symmetry_space_group_name_H-M   'P 1'
_cell_length_a   3.40280259
_cell_length_b   3.40280259
_cell_length_c   21.34246273
_cell_angle_alpha   90.00000000
_cell_angle_beta   90.00000000
_cell_angle_gamma   90.00000000
_symmetry_Int_Tables_number   1
_chemical_formula_structural   NaCl
_chemical_formula_sum   'Na4 Cl4'
_cell_volume   247.12577317
_cell_formula_units_Z   4
loop_
 _symmetry_equiv_pos_site_id
 _symmetry_equiv_pos_as_xyz
  1  'x, y, z'
loop_
 _atom_site_type_symbol
 _atom_site_label
 _atom_site_symmetry_multiplicity
 _atom_site_fract_x
 _atom_site_fract_y
 _atom_site_fract_z
 _atom_site_occupancy
  Na  Na0  1  0.45047566  0.00000000  0.24526506  1.0
  Na  Na1  1  0.44272969  0.00000000  0.03162866  1.0
  Na  Na2  1  0.00000000  0.89666295  0.16122845  1.0
  Na  Na3  1  0.00000000  0.79651420  0.54687074  1.0
  Cl  Cl4  1  0.50000000  0.50000000  0.65291547  1.0
  Cl  Cl5  1  0.50000000  0.50000000  0.47956096  1.0
  Cl  Cl6  1  0.50000000  0.50000000  0.18327228  1.0
  Cl  Cl7  1  0.50000000  0.50000000  0.79764836  1.0
