# generated using pymatgen
data_NaCl
_symmetry_space_group_name_H-M   'P 1'
_cell_length_a   4.09700242
_cell_length_b   4.09700242
_cell_length_c   19.65914897
_cell_angle_alpha   90.00000000
_cell_angle_beta   90.00000000
_cell_angle_gamma   120.00000000
_symmetry_Int_Tables_number   1
_chemical_formula_structural   NaCl
_chemical_formula_sum   'Na4 Cl4'
_cell_volume   285.77733786
_cell_formula_units_Z   4
loop_
 _symmetry_equiv_pos_site_id
 _symmetry_equiv_pos_as_xyz
  1  'x, y, z'
loop_
 _atom_site_type_symbol
 _atom_site_label
 _atom_site_symmetry_multiplicity
 _atom_site_fract_x
 _atom_site_fract_y
 _atom_site_fract_z
 _atom_site_occupancy
  Na  Na0  1  0.33333333  0.66666667  0.73205007  1.0
  Na  Na1  1  0.66666667  0.33333333  0.52071695  1.0
  Na  Na2  1  0.33333333  0.66666667  0.59197324  1.0
  Na  Na3  1  0.66666667  0.33333333  0.45214712  1.0
  Cl  Cl4  1  0.00000000  0.00000000  0.85491098  1.0
  Cl  Cl5  1  0.00000000  0.00000000  0.23879756  1.0
  Cl  Cl6  1  0.00000000  0.00000000  0.00942484  1.0
  Cl  Cl7  1  0.00000000  0.00000000  0.14895761  1.0
