# generated using pymatgen
data_NaCl
_symmetry_space_group_name_H-M   'P 1'
_cell_length_a   2.89671304
_cell_length_b   2.02821235
_cell_length_c   15.71851732
_cell_angle_alpha   90.00000000
_cell_angle_beta   90.00000000
_cell_angle_gamma   90.00000000
_symmetry_Int_Tables_number   1
_chemical_formula_structural   NaCl
_chemical_formula_sum   'Na4 Cl4'
_cell_volume   92.34863386
_cell_formula_units_Z   4
loop_
 _symmetry_equiv_pos_site_id
 _symmetry_equiv_pos_as_xyz
  1  'x, y, z'
loop_
 _atom_site_type_symbol
 _atom_site_label
 _atom_site_symmetry_multiplicity
 _atom_site_fract_x
 _atom_site_fract_y
 _atom_site_fract_z
 _atom_site_occupancy
  Na  Na0  1  0.50000000  0.56717134  0.66534715  1.0
  Na  Na1  1  0.50000000  0.02277472  0.58624470  1.0
  Na  Na2  1  0.50000000  0.78085222  0.06298935  1.0
  Na  Na3  1  0.50000000  0.67401639  0.93196337  1.0
  Cl  Cl4  1  0.39347726  0.45020911  0.79943064  1.0
  Cl  Cl5  1  0.96165251  0.64607925  0.11964645  1.0
  Cl  Cl6  1  0.86711833  0.15675454  0.52366649  1.0
  Cl  Cl7  1  0.06570623  0.05242011  0.72871048  1.0
