# generated using pymatgen
data_NaCl
_symmetry_space_group_name_H-M   'P 1'
_cell_length_a   4.00514008
_cell_length_b   4.00514008
_cell_length_c   19.20208624
_cell_angle_alpha   90.00000000
_cell_angle_beta   90.00000000
_cell_angle_gamma   90.00000000
_symmetry_Int_Tables_number   1
_chemical_formula_structural   NaCl
_chemical_formula_sum   'Na4 Cl4'
_cell_volume   308.02348924
_cell_formula_units_Z   4
loop_
 _symmetry_equiv_pos_site_id
 _symmetry_equiv_pos_as_xyz
  1  'x, y, z'
loop_
 _atom_site_type_symbol
 _atom_site_label
 _atom_site_symmetry_multiplicity
 _atom_site_fract_x
 _atom_site_fract_y
 _atom_site_fract_z
 _atom_site_occupancy
  Na  Na0  1  0.96820565  0.72952047  0.23843279  1.0
  Na  Na1  1  0.44545689  0.37775674  0.66225140  1.0
  Na  Na2  1  0.36872161  0.73592868  0.58608613  1.0
  Na  Na3  1  0.39480971  0.81573825  0.39999473  1.0
  Cl  Cl4  1  0.02024927  0.11113863  0.55482952  1.0
  Cl  Cl5  1  0.56668389  0.52973058  0.06999723  1.0
  Cl  Cl6  1  0.55994329  0.63883875  0.37347024  1.0
  Cl  Cl7  1  0.26740901  0.43791554  0.71563484  1.0
