# generated using pymatgen
data_NaCl
_symmetry_space_group_name_H-M   'P 1'
_cell_length_a   4.00922301
_cell_length_b   4.00922301
_cell_length_c   19.15819260
_cell_angle_alpha   90.00000000
_cell_angle_beta   90.00000000
_cell_angle_gamma   90.00000000
_symmetry_Int_Tables_number   1
_chemical_formula_structural   NaCl
_chemical_formula_sum   'Na4 Cl4'
_cell_volume   307.94628089
_cell_formula_units_Z   4
loop_
 _symmetry_equiv_pos_site_id
 _symmetry_equiv_pos_as_xyz
  1  'x, y, z'
loop_
 _atom_site_type_symbol
 _atom_site_label
 _atom_site_symmetry_multiplicity
 _atom_site_fract_x
 _atom_site_fract_y
 _atom_site_fract_z
 _atom_site_occupancy
  Na  Na0  1  0.49273747  0.91576379  0.13580589  1.0
  Na  Na1  1  0.51450874  0.25168873  0.76468783  1.0
  Na  Na2  1  0.90572828  0.78955512  0.40440674  1.0
  Na  Na3  1  0.40205957  0.87349119  0.39461957  1.0
  Cl  Cl4  1  0.03097923  0.09035476  0.57617863  1.0
  Cl  Cl5  1  0.20862223  0.52301411  0.01027472  1.0
  Cl  Cl6  1  0.48338862  0.63104072  0.31943174  1.0
  Cl  Cl7  1  0.38236635  0.26962597  0.64327345  1.0
