# generated using pymatgen
data_NaCl
_symmetry_space_group_name_H-M   'P 1'
_cell_length_a   5.82465161
_cell_length_b   10.48525584
_cell_length_c   5.77737905
_cell_angle_alpha   90.00000000
_cell_angle_beta   90.00000000
_cell_angle_gamma   90.00000000
_symmetry_Int_Tables_number   1
_chemical_formula_structural   NaCl
_chemical_formula_sum   'Na4 Cl4'
_cell_volume   352.84165297
_cell_formula_units_Z   4
loop_
 _symmetry_equiv_pos_site_id
 _symmetry_equiv_pos_as_xyz
  1  'x, y, z'
loop_
 _atom_site_type_symbol
 _atom_site_label
 _atom_site_symmetry_multiplicity
 _atom_site_fract_x
 _atom_site_fract_y
 _atom_site_fract_z
 _atom_site_occupancy
  Na  Na0  1  0.12047515  0.82698850  0.73129810  1.0
  Na  Na1  1  0.99053103  0.05297548  0.27044916  1.0
  Na  Na2  1  0.50619042  0.53477990  0.28321185  1.0
  Na  Na3  1  0.05416210  0.36352157  0.13241503  1.0
  Cl  Cl4  1  0.52203153  0.14951736  0.93363275  1.0
  Cl  Cl5  1  0.31578823  0.33555929  0.17082880  1.0
  Cl  Cl6  1  0.24634928  0.70758233  0.44175310  1.0
  Cl  Cl7  1  0.66705549  0.83239345  0.55980449  1.0
