# generated using pymatgen
data_NaCl
_symmetry_space_group_name_H-M   'P 1'
_cell_length_a   5.33935763
_cell_length_b   10.00373643
_cell_length_c   2.44941096
_cell_angle_alpha   90.00000000
_cell_angle_beta   48.11831606
_cell_angle_gamma   90.00000000
_symmetry_Int_Tables_number   1
_chemical_formula_structural   NaCl
_chemical_formula_sum   'Na4 Cl4'
_cell_volume   97.40745410
_cell_formula_units_Z   4
loop_
 _symmetry_equiv_pos_site_id
 _symmetry_equiv_pos_as_xyz
  1  'x, y, z'
loop_
 _atom_site_type_symbol
 _atom_site_label
 _atom_site_symmetry_multiplicity
 _atom_site_fract_x
 _atom_site_fract_y
 _atom_site_fract_z
 _atom_site_occupancy
  Na  Na0  1  0.28732836  0.80279751  0.84092365  1.0
  Na  Na1  1  0.49487761  0.49939850  0.22736680  1.0
  Na  Na2  1  0.33889103  0.12495221  0.25700589  1.0
  Na  Na3  1  0.55274955  0.70957045  0.43147084  1.0
  Cl  Cl4  1  0.24881030  0.23107088  0.56740797  1.0
  Cl  Cl5  1  0.95618704  0.14210715  0.36137192  1.0
  Cl  Cl6  1  0.78858440  0.78401226  0.04010589  1.0
  Cl  Cl7  1  0.81527114  0.38352647  0.53022633  1.0
