# generated using pymatgen
data_NaCl
_symmetry_space_group_name_H-M   'P 1'
_cell_length_a   2.46501603
_cell_length_b   17.61493906
_cell_length_c   7.51715662
_cell_angle_alpha   90.00000000
_cell_angle_beta   90.00000000
_cell_angle_gamma   90.00000000
_symmetry_Int_Tables_number   1
_chemical_formula_structural   NaCl
_chemical_formula_sum   'Na4 Cl4'
_cell_volume   326.40326306
_cell_formula_units_Z   4
loop_
 _symmetry_equiv_pos_site_id
 _symmetry_equiv_pos_as_xyz
  1  'x, y, z'
loop_
 _atom_site_type_symbol
 _atom_site_label
 _atom_site_symmetry_multiplicity
 _atom_site_fract_x
 _atom_site_fract_y
 _atom_site_fract_z
 _atom_site_occupancy
  Na  Na0  1  0.25000000  0.55144897  0.73621262  1.0
  Na  Na1  1  0.75000000  0.19748020  0.74144865  1.0
  Na  Na2  1  0.75000000  0.90214291  0.56314732  1.0
  Na  Na3  1  0.25000000  0.09185399  0.60457955  1.0
  Cl  Cl4  1  0.25000000  0.25128047  0.66899644  1.0
  Cl  Cl5  1  0.75000000  0.31929997  0.91789716  1.0
  Cl  Cl6  1  0.75000000  0.74812462  0.72349382  1.0
  Cl  Cl7  1  0.25000000  0.92905502  0.73234539  1.0
