# generated using pymatgen
data_NaCl
_symmetry_space_group_name_H-M   'P 1'
_cell_length_a   7.65030487
_cell_length_b   8.93048422
_cell_length_c   5.79435581
_cell_angle_alpha   90.00000000
_cell_angle_beta   90.00000000
_cell_angle_gamma   90.00000000
_symmetry_Int_Tables_number   1
_chemical_formula_structural   NaCl
_chemical_formula_sum   'Na4 Cl4'
_cell_volume   395.87575984
_cell_formula_units_Z   4
loop_
 _symmetry_equiv_pos_site_id
 _symmetry_equiv_pos_as_xyz
  1  'x, y, z'
loop_
 _atom_site_type_symbol
 _atom_site_label
 _atom_site_symmetry_multiplicity
 _atom_site_fract_x
 _atom_site_fract_y
 _atom_site_fract_z
 _atom_site_occupancy
  Na  Na0  1  0.52501804  0.80118623  0.43381879  1.0
  Na  Na1  1  0.43443082  0.16469493  0.56181544  1.0
  Na  Na2  1  0.01758550  0.74847010  0.17011738  1.0
  Na  Na3  1  0.88259709  0.15821940  0.85314640  1.0
  Cl  Cl4  1  0.66262800  0.16462325  0.96878378  1.0
  Cl  Cl5  1  0.99608530  0.20494164  0.17916708  1.0
  Cl  Cl6  1  0.75109651  0.64404058  0.04026603  1.0
  Cl  Cl7  1  0.23325338  0.64130982  0.92707780  1.0
