# generated using pymatgen
data_NaCl
_symmetry_space_group_name_H-M   'P 1'
_cell_length_a   5.97902961
_cell_length_b   8.30257554
_cell_length_c   7.67666400
_cell_angle_alpha   90.00000000
_cell_angle_beta   38.69061537
_cell_angle_gamma   90.00000000
_symmetry_Int_Tables_number   1
_chemical_formula_structural   NaCl
_chemical_formula_sum   'Na4 Cl4'
_cell_volume   238.21870904
_cell_formula_units_Z   4
loop_
 _symmetry_equiv_pos_site_id
 _symmetry_equiv_pos_as_xyz
  1  'x, y, z'
loop_
 _atom_site_type_symbol
 _atom_site_label
 _atom_site_symmetry_multiplicity
 _atom_site_fract_x
 _atom_site_fract_y
 _atom_site_fract_z
 _atom_site_occupancy
  Na  Na0  1  0.59069315  0.79716435  0.60665264  1.0
  Na  Na1  1  0.13341192  0.06894815  0.96029999  1.0
  Na  Na2  1  0.05341873  0.55940096  0.14563356  1.0
  Na  Na3  1  0.04928507  0.49976774  0.89482087  1.0
  Cl  Cl4  1  0.45494417  0.06210917  0.92722394  1.0
  Cl  Cl5  1  0.07904770  0.32947148  0.16074034  1.0
  Cl  Cl6  1  0.87375219  0.90974496  0.05150867  1.0
  Cl  Cl7  1  0.81803203  0.79250766  0.97339197  1.0
