# generated using pymatgen
data_NaCl
_symmetry_space_group_name_H-M   'P 1'
_cell_length_a   5.19561628
_cell_length_b   11.56251643
_cell_length_c   8.06035056
_cell_angle_alpha   90.00000000
_cell_angle_beta   51.02287073
_cell_angle_gamma   90.00000000
_symmetry_Int_Tables_number   1
_chemical_formula_structural   NaCl
_chemical_formula_sum   'Na4 Cl4'
_cell_volume   376.43178004
_cell_formula_units_Z   4
loop_
 _symmetry_equiv_pos_site_id
 _symmetry_equiv_pos_as_xyz
  1  'x, y, z'
loop_
 _atom_site_type_symbol
 _atom_site_label
 _atom_site_symmetry_multiplicity
 _atom_site_fract_x
 _atom_site_fract_y
 _atom_site_fract_z
 _atom_site_occupancy
  Na  Na0  1  0.60275229  0.68635295  0.39627248  1.0
  Na  Na1  1  0.05114745  0.10601319  0.22771072  1.0
  Na  Na2  1  0.00611627  0.82865142  0.14951731  1.0
  Na  Na3  1  0.03874531  0.13552750  0.06852895  1.0
  Cl  Cl4  1  0.57760137  0.15173556  0.73322251  1.0
  Cl  Cl5  1  0.16379583  0.46114102  0.11313600  1.0
  Cl  Cl6  1  0.41836270  0.81102687  0.01755380  1.0
  Cl  Cl7  1  0.70885583  0.89927984  0.80219916  1.0
