# generated using pymatgen
data_NaCl
_symmetry_space_group_name_H-M   'P 1'
_cell_length_a   4.91973287
_cell_length_b   12.12292854
_cell_length_c   6.12137548
_cell_angle_alpha   90.00000000
_cell_angle_beta   90.00000000
_cell_angle_gamma   90.00000000
_symmetry_Int_Tables_number   1
_chemical_formula_structural   NaCl
_chemical_formula_sum   'Na4 Cl4'
_cell_volume   365.08844430
_cell_formula_units_Z   4
loop_
 _symmetry_equiv_pos_site_id
 _symmetry_equiv_pos_as_xyz
  1  'x, y, z'
loop_
 _atom_site_type_symbol
 _atom_site_label
 _atom_site_symmetry_multiplicity
 _atom_site_fract_x
 _atom_site_fract_y
 _atom_site_fract_z
 _atom_site_occupancy
  Na  Na0  1  0.19146530  0.25000000  0.82988569  1.0
  Na  Na1  1  0.45993199  0.75000000  0.78306012  1.0
  Na  Na2  1  0.76294172  0.75000000  0.70618530  1.0
  Na  Na3  1  0.50172553  0.25000000  0.50072921  1.0
  Cl  Cl4  1  0.50000000  0.00000000  0.80746023  1.0
  Cl  Cl5  1  0.50000000  0.50000000  0.69522146  1.0
  Cl  Cl6  1  0.50000000  0.50000000  0.51998918  1.0
  Cl  Cl7  1  0.50000000  0.00000000  0.02045386  1.0
