# generated using pymatgen
data_NaCl
_symmetry_space_group_name_H-M   'P 1'
_cell_length_a   7.08693407
_cell_length_b   8.94097734
_cell_length_c   6.09384668
_cell_angle_alpha   90.00000000
_cell_angle_beta   90.00000000
_cell_angle_gamma   90.00000000
_symmetry_Int_Tables_number   1
_chemical_formula_structural   NaCl
_chemical_formula_sum   'Na4 Cl4'
_cell_volume   386.13121358
_cell_formula_units_Z   4
loop_
 _symmetry_equiv_pos_site_id
 _symmetry_equiv_pos_as_xyz
  1  'x, y, z'
loop_
 _atom_site_type_symbol
 _atom_site_label
 _atom_site_symmetry_multiplicity
 _atom_site_fract_x
 _atom_site_fract_y
 _atom_site_fract_z
 _atom_site_occupancy
  Na  Na0  1  0.57215338  0.64971998  0.74780445  1.0
  Na  Na1  1  0.76169882  0.09376190  0.32429213  1.0
  Na  Na2  1  0.51819623  0.00038096  0.28602031  1.0
  Na  Na3  1  0.56883319  0.99868954  0.64989331  1.0
  Cl  Cl4  1  0.00000000  0.10577150  0.25000000  1.0
  Cl  Cl5  1  0.00000000  0.23455103  0.75000000  1.0
  Cl  Cl6  1  0.40349808  0.00000000  0.00000000  1.0
  Cl  Cl7  1  0.81385330  0.00000000  0.50000000  1.0
