# generated using pymatgen
data_NaCl
_symmetry_space_group_name_H-M   'P 1'
_cell_length_a   5.66524531
_cell_length_b   5.66524531
_cell_length_c   7.95148690
_cell_angle_alpha   90.00000000
_cell_angle_beta   90.00000000
_cell_angle_gamma   120.00000000
_symmetry_Int_Tables_number   1
_chemical_formula_structural   NaCl
_chemical_formula_sum   'Na4 Cl4'
_cell_volume   221.01228738
_cell_formula_units_Z   4
loop_
 _symmetry_equiv_pos_site_id
 _symmetry_equiv_pos_as_xyz
  1  'x, y, z'
loop_
 _atom_site_type_symbol
 _atom_site_label
 _atom_site_symmetry_multiplicity
 _atom_site_fract_x
 _atom_site_fract_y
 _atom_site_fract_z
 _atom_site_occupancy
  Na  Na0  1  0.33333333  0.66666667  0.76745970  1.0
  Na  Na1  1  0.66666667  0.33333333  0.21307541  1.0
  Na  Na2  1  0.33333333  0.66666667  0.22397510  1.0
  Na  Na3  1  0.66666667  0.33333333  0.64067703  1.0
  Cl  Cl4  1  0.00000000  0.00000000  0.96563862  1.0
  Cl  Cl5  1  0.00000000  0.00000000  0.09936720  1.0
  Cl  Cl6  1  0.33333333  0.66666667  0.03618736  1.0
  Cl  Cl7  1  0.66666667  0.33333333  0.93677239  1.0
