# generated using pymatgen
data_NaCl
_symmetry_space_group_name_H-M   'P 1'
_cell_length_a   6.63714845
_cell_length_b   7.50620773
_cell_length_c   6.08399944
_cell_angle_alpha   90.00000000
_cell_angle_beta   90.00000000
_cell_angle_gamma   90.00000000
_symmetry_Int_Tables_number   1
_chemical_formula_structural   NaCl
_chemical_formula_sum   'Na4 Cl4'
_cell_volume   303.10372656
_cell_formula_units_Z   4
loop_
 _symmetry_equiv_pos_site_id
 _symmetry_equiv_pos_as_xyz
  1  'x, y, z'
loop_
 _atom_site_type_symbol
 _atom_site_label
 _atom_site_symmetry_multiplicity
 _atom_site_fract_x
 _atom_site_fract_y
 _atom_site_fract_z
 _atom_site_occupancy
  Na  Na0  1  0.57942080  0.76591555  0.38140365  1.0
  Na  Na1  1  0.98145943  0.14246462  0.81938504  1.0
  Na  Na2  1  0.06350246  0.47350036  0.58989905  1.0
  Na  Na3  1  0.90917335  0.64047739  0.90643337  1.0
  Cl  Cl4  1  0.00000000  0.00000000  0.99920759  1.0
  Cl  Cl5  1  0.50000000  0.50000000  0.23914907  1.0
  Cl  Cl6  1  0.00000000  0.50000000  0.04237212  1.0
  Cl  Cl7  1  0.50000000  0.00000000  0.95227641  1.0
