# generated using pymatgen
data_NaCl
_symmetry_space_group_name_H-M   'P 1'
_cell_length_a   5.34703573
_cell_length_b   5.34703573
_cell_length_c   7.17244825
_cell_angle_alpha   90.00000000
_cell_angle_beta   90.00000000
_cell_angle_gamma   90.00000000
_symmetry_Int_Tables_number   1
_chemical_formula_structural   NaCl
_chemical_formula_sum   'Na4 Cl4'
_cell_volume   205.06596958
_cell_formula_units_Z   4
loop_
 _symmetry_equiv_pos_site_id
 _symmetry_equiv_pos_as_xyz
  1  'x, y, z'
loop_
 _atom_site_type_symbol
 _atom_site_label
 _atom_site_symmetry_multiplicity
 _atom_site_fract_x
 _atom_site_fract_y
 _atom_site_fract_z
 _atom_site_occupancy
  Na  Na0  1  0.25238661  0.97961402  0.89109106  1.0
  Na  Na1  1  0.57018039  0.52175638  0.90685495  1.0
  Na  Na2  1  0.97846160  0.56440022  0.46062236  1.0
  Na  Na3  1  0.04837850  0.32007829  0.61247639  1.0
  Cl  Cl4  1  0.42154852  0.15539813  0.99877406  1.0
  Cl  Cl5  1  0.89655853  0.29465992  0.97407555  1.0
  Cl  Cl6  1  0.69506439  0.58609887  0.25089641  1.0
  Cl  Cl7  1  0.78069255  0.86457712  0.86442471  1.0
