# generated using pymatgen
data_NaCl
_symmetry_space_group_name_H-M   'P 1'
_cell_length_a   4.30307828
_cell_length_b   10.03545499
_cell_length_c   9.30974665
_cell_angle_alpha   90.00000000
_cell_angle_beta   90.00000000
_cell_angle_gamma   90.00000000
_symmetry_Int_Tables_number   1
_chemical_formula_structural   NaCl
_chemical_formula_sum   'Na4 Cl4'
_cell_volume   402.02603308
_cell_formula_units_Z   4
loop_
 _symmetry_equiv_pos_site_id
 _symmetry_equiv_pos_as_xyz
  1  'x, y, z'
loop_
 _atom_site_type_symbol
 _atom_site_label
 _atom_site_symmetry_multiplicity
 _atom_site_fract_x
 _atom_site_fract_y
 _atom_site_fract_z
 _atom_site_occupancy
  Na  Na0  1  0.29888431  0.73735487  0.77097433  1.0
  Na  Na1  1  0.96123512  0.24346372  0.84741467  1.0
  Na  Na2  1  0.69168029  0.23451832  0.26675274  1.0
  Na  Na3  1  0.53361047  0.66588559  0.44018079  1.0
  Cl  Cl4  1  0.00000000  0.50000000  0.78027317  1.0
  Cl  Cl5  1  0.50000000  0.00000000  0.95378014  1.0
  Cl  Cl6  1  0.00000000  0.50000000  0.01765808  1.0
  Cl  Cl7  1  0.50000000  0.00000000  0.25931792  1.0
