# generated using pymatgen
data_NaCl
_symmetry_space_group_name_H-M   'P 1'
_cell_length_a   6.92842335
_cell_length_b   6.92842335
_cell_length_c   4.46429718
_cell_angle_alpha   90.00000000
_cell_angle_beta   90.00000000
_cell_angle_gamma   90.00000000
_symmetry_Int_Tables_number   1
_chemical_formula_structural   NaCl
_chemical_formula_sum   'Na4 Cl4'
_cell_volume   214.29988127
_cell_formula_units_Z   4
loop_
 _symmetry_equiv_pos_site_id
 _symmetry_equiv_pos_as_xyz
  1  'x, y, z'
loop_
 _atom_site_type_symbol
 _atom_site_label
 _atom_site_symmetry_multiplicity
 _atom_site_fract_x
 _atom_site_fract_y
 _atom_site_fract_z
 _atom_site_occupancy
  Na  Na0  1  0.30635618  0.76752206  0.49946876  1.0
  Na  Na1  1  0.66494147  0.01646114  0.28981558  1.0
  Na  Na2  1  0.02829362  0.11997192  0.40715663  1.0
  Na  Na3  1  0.09876796  0.15754776  0.93073005  1.0
  Cl  Cl4  1  0.45397348  0.25422776  0.94523588  1.0
  Cl  Cl5  1  0.91243634  0.15230989  0.80976965  1.0
  Cl  Cl6  1  0.88944872  0.54568270  0.25057955  1.0
  Cl  Cl7  1  0.87122003  0.72024390  0.00092503  1.0
