# generated using pymatgen
data_NaCl
_symmetry_space_group_name_H-M   'P 1'
_cell_length_a   7.61376986
_cell_length_b   9.43668147
_cell_length_c   4.81149233
_cell_angle_alpha   90.00000000
_cell_angle_beta   39.79682198
_cell_angle_gamma   90.00000000
_symmetry_Int_Tables_number   1
_chemical_formula_structural   NaCl
_chemical_formula_sum   'Na4 Cl4'
_cell_volume   221.27091564
_cell_formula_units_Z   4
loop_
 _symmetry_equiv_pos_site_id
 _symmetry_equiv_pos_as_xyz
  1  'x, y, z'
loop_
 _atom_site_type_symbol
 _atom_site_label
 _atom_site_symmetry_multiplicity
 _atom_site_fract_x
 _atom_site_fract_y
 _atom_site_fract_z
 _atom_site_occupancy
  Na  Na0  1  0.14484465  0.79164875  0.84600645  1.0
  Na  Na1  1  0.48536752  0.11949366  0.25162398  1.0
  Na  Na2  1  0.01359751  0.58602703  0.16207683  1.0
  Na  Na3  1  0.09254059  0.42094315  0.02619143  1.0
  Cl  Cl4  1  0.59747570  0.23261868  0.99940552  1.0
  Cl  Cl5  1  0.16745358  0.31164039  0.23943806  1.0
  Cl  Cl6  1  0.36233471  0.14363472  0.04592506  1.0
  Cl  Cl7  1  0.70849409  0.51866285  0.77292901  1.0
