# generated using pymatgen
data_NaCl
_symmetry_space_group_name_H-M   'P 1'
_cell_length_a   5.62553504
_cell_length_b   7.11648195
_cell_length_c   6.80130562
_cell_angle_alpha   90.00000000
_cell_angle_beta   90.00000000
_cell_angle_gamma   90.00000000
_symmetry_Int_Tables_number   1
_chemical_formula_structural   NaCl
_chemical_formula_sum   'Na4 Cl4'
_cell_volume   272.28359550
_cell_formula_units_Z   4
loop_
 _symmetry_equiv_pos_site_id
 _symmetry_equiv_pos_as_xyz
  1  'x, y, z'
loop_
 _atom_site_type_symbol
 _atom_site_label
 _atom_site_symmetry_multiplicity
 _atom_site_fract_x
 _atom_site_fract_y
 _atom_site_fract_z
 _atom_site_occupancy
  Na  Na0  1  0.23409808  0.76839207  0.25000000  1.0
  Na  Na1  1  0.93077420  0.11094825  0.75000000  1.0
  Na  Na2  1  0.55537165  0.69228135  0.25000000  1.0
  Na  Na3  1  0.49463199  0.28363986  0.75000000  1.0
  Cl  Cl4  1  0.50042531  0.25000000  0.00000000  1.0
  Cl  Cl5  1  0.84388108  0.75000000  0.50000000  1.0
  Cl  Cl6  1  0.07239988  0.75000000  0.00000000  1.0
  Cl  Cl7  1  0.18706997  0.25000000  0.50000000  1.0
