# generated using pymatgen
data_NaCl
_symmetry_space_group_name_H-M   'P 1'
_cell_length_a   4.62317715
_cell_length_b   8.69972357
_cell_length_c   3.84465709
_cell_angle_alpha   90.00000000
_cell_angle_beta   90.00000000
_cell_angle_gamma   90.00000000
_symmetry_Int_Tables_number   1
_chemical_formula_structural   NaCl
_chemical_formula_sum   'Na4 Cl4'
_cell_volume   154.63350462
_cell_formula_units_Z   4
loop_
 _symmetry_equiv_pos_site_id
 _symmetry_equiv_pos_as_xyz
  1  'x, y, z'
loop_
 _atom_site_type_symbol
 _atom_site_label
 _atom_site_symmetry_multiplicity
 _atom_site_fract_x
 _atom_site_fract_y
 _atom_site_fract_z
 _atom_site_occupancy
  Na  Na0  1  0.25000000  0.85797376  0.63260852  1.0
  Na  Na1  1  0.75000000  0.03396851  0.72070547  1.0
  Na  Na2  1  0.75000000  0.57745870  0.72345271  1.0
  Na  Na3  1  0.25000000  0.35807497  0.71129862  1.0
  Cl  Cl4  1  0.25000000  0.18924123  0.98483044  1.0
  Cl  Cl5  1  0.75000000  0.40922187  0.73609769  1.0
  Cl  Cl6  1  0.75000000  0.75274153  0.50047132  1.0
  Cl  Cl7  1  0.25000000  0.77755655  0.87815473  1.0
