# generated using pymatgen
data_NaCl
_symmetry_space_group_name_H-M   'P 1'
_cell_length_a   2.85928428
_cell_length_b   14.83395279
_cell_length_c   4.19727888
_cell_angle_alpha   90.00000000
_cell_angle_beta   71.11051346
_cell_angle_gamma   90.00000000
_symmetry_Int_Tables_number   1
_chemical_formula_structural   NaCl
_chemical_formula_sum   'Na4 Cl4'
_cell_volume   168.43783582
_cell_formula_units_Z   4
loop_
 _symmetry_equiv_pos_site_id
 _symmetry_equiv_pos_as_xyz
  1  'x, y, z'
loop_
 _atom_site_type_symbol
 _atom_site_label
 _atom_site_symmetry_multiplicity
 _atom_site_fract_x
 _atom_site_fract_y
 _atom_site_fract_z
 _atom_site_occupancy
  Na  Na0  1  0.36865580  0.00000000  0.89739418  1.0
  Na  Na1  1  0.25029178  0.50000000  0.97919256  1.0
  Na  Na2  1  0.43711262  0.44443770  0.44550327  1.0
  Na  Na3  1  0.42177466  0.90595809  0.46593734  1.0
  Cl  Cl4  1  0.10839789  0.00000000  0.64559746  1.0
  Cl  Cl5  1  0.16182027  0.50000000  0.34494851  1.0
  Cl  Cl6  1  0.64417319  0.40133234  0.11952852  1.0
  Cl  Cl7  1  0.72748558  0.66395519  0.03612528  1.0
