# generated using pymatgen
data_NaCl
_symmetry_space_group_name_H-M   'P 1'
_cell_length_a   7.37103115
_cell_length_b   12.36569539
_cell_length_c   4.30400321
_cell_angle_alpha   90.00000000
_cell_angle_beta   55.96019240
_cell_angle_gamma   90.00000000
_symmetry_Int_Tables_number   1
_chemical_formula_structural   NaCl
_chemical_formula_sum   'Na4 Cl4'
_cell_volume   325.07974800
_cell_formula_units_Z   4
loop_
 _symmetry_equiv_pos_site_id
 _symmetry_equiv_pos_as_xyz
  1  'x, y, z'
loop_
 _atom_site_type_symbol
 _atom_site_label
 _atom_site_symmetry_multiplicity
 _atom_site_fract_x
 _atom_site_fract_y
 _atom_site_fract_z
 _atom_site_occupancy
  Na  Na0  1  0.62040878  0.85233567  0.69676779  1.0
  Na  Na1  1  0.42783942  0.46713769  0.38699769  1.0
  Na  Na2  1  0.43154912  0.21044182  0.42502765  1.0
  Na  Na3  1  0.29682217  0.51639679  0.27356031  1.0
  Cl  Cl4  1  0.15931885  0.21056784  0.68877238  1.0
  Cl  Cl5  1  0.91903638  0.19525731  0.19538439  1.0
  Cl  Cl6  1  0.85530397  0.31754011  0.44860277  1.0
  Cl  Cl7  1  0.92973086  0.31319211  0.62816783  1.0
