# generated using pymatgen
data_NaCl
_symmetry_space_group_name_H-M   'P 1'
_cell_length_a   5.13815067
_cell_length_b   7.55375690
_cell_length_c   5.16654723
_cell_angle_alpha   90.00000000
_cell_angle_beta   90.00000000
_cell_angle_gamma   90.00000000
_symmetry_Int_Tables_number   1
_chemical_formula_structural   NaCl
_chemical_formula_sum   'Na4 Cl4'
_cell_volume   200.52579328
_cell_formula_units_Z   4
loop_
 _symmetry_equiv_pos_site_id
 _symmetry_equiv_pos_as_xyz
  1  'x, y, z'
loop_
 _atom_site_type_symbol
 _atom_site_label
 _atom_site_symmetry_multiplicity
 _atom_site_fract_x
 _atom_site_fract_y
 _atom_site_fract_z
 _atom_site_occupancy
  Na  Na0  1  0.50000000  0.85200035  0.54623170  1.0
  Na  Na1  1  0.50000000  0.05235305  0.85135832  1.0
  Na  Na2  1  0.50000000  0.69602879  0.73336382  1.0
  Na  Na3  1  0.50000000  0.38812504  0.82965631  1.0
  Cl  Cl4  1  0.00000000  0.04941400  0.86622832  1.0
  Cl  Cl5  1  0.00000000  0.37877222  0.68248913  1.0
  Cl  Cl6  1  0.00000000  0.79472739  0.50127839  1.0
  Cl  Cl7  1  0.00000000  0.80491022  0.99647513  1.0
