# generated using pymatgen
data_NaCl
_symmetry_space_group_name_H-M   'P 1'
_cell_length_a   6.97046770
_cell_length_b   6.97046770
_cell_length_c   8.45231818
_cell_angle_alpha   90.00000000
_cell_angle_beta   90.00000000
_cell_angle_gamma   120.00000000
_symmetry_Int_Tables_number   1
_chemical_formula_structural   NaCl
_chemical_formula_sum   'Na4 Cl4'
_cell_volume   355.65613713
_cell_formula_units_Z   4
loop_
 _symmetry_equiv_pos_site_id
 _symmetry_equiv_pos_as_xyz
  1  'x, y, z'
loop_
 _atom_site_type_symbol
 _atom_site_label
 _atom_site_symmetry_multiplicity
 _atom_site_fract_x
 _atom_site_fract_y
 _atom_site_fract_z
 _atom_site_occupancy
  Na  Na0  1  0.33333333  0.66666667  0.66399891  1.0
  Na  Na1  1  0.80600086  0.19399914  0.87534321  1.0
  Na  Na2  1  0.53841804  0.53841804  0.22224430  1.0
  Na  Na3  1  0.48978420  0.48978420  0.38770833  1.0
  Cl  Cl4  1  0.00000000  0.00000000  0.87658606  1.0
  Cl  Cl5  1  0.00000000  0.00000000  0.97655660  1.0
  Cl  Cl6  1  0.00000000  0.00000000  0.28563801  1.0
  Cl  Cl7  1  0.33333333  0.66666667  0.24567147  1.0
