# generated using pymatgen
data_NaCl
_symmetry_space_group_name_H-M   'P 1'
_cell_length_a   5.40878841
_cell_length_b   20.05760275
_cell_length_c   2.92870653
_cell_angle_alpha   90.00000000
_cell_angle_beta   90.00000000
_cell_angle_gamma   90.00000000
_symmetry_Int_Tables_number   1
_chemical_formula_structural   NaCl
_chemical_formula_sum   'Na4 Cl4'
_cell_volume   317.72754970
_cell_formula_units_Z   4
loop_
 _symmetry_equiv_pos_site_id
 _symmetry_equiv_pos_as_xyz
  1  'x, y, z'
loop_
 _atom_site_type_symbol
 _atom_site_label
 _atom_site_symmetry_multiplicity
 _atom_site_fract_x
 _atom_site_fract_y
 _atom_site_fract_z
 _atom_site_occupancy
  Na  Na0  1  0.40561044  0.81240224  0.25000000  1.0
  Na  Na1  1  0.44080999  0.59585267  0.75000000  1.0
  Na  Na2  1  0.90823268  0.83951408  0.25000000  1.0
  Na  Na3  1  0.49903016  0.38657052  0.75000000  1.0
  Cl  Cl4  1  0.47436486  0.11045336  0.25000000  1.0
  Cl  Cl5  1  0.93012783  0.46426979  0.75000000  1.0
  Cl  Cl6  1  0.86231510  0.78311403  0.25000000  1.0
  Cl  Cl7  1  0.17308641  0.79645687  0.75000000  1.0
