# generated using pymatgen
data_NaCl
_symmetry_space_group_name_H-M   'P 1'
_cell_length_a   9.03841871
_cell_length_b   9.30764839
_cell_length_c   5.47649871
_cell_angle_alpha   90.00000000
_cell_angle_beta   41.69941916
_cell_angle_gamma   90.00000000
_symmetry_Int_Tables_number   1
_chemical_formula_structural   NaCl
_chemical_formula_sum   'Na4 Cl4'
_cell_volume   306.48027693
_cell_formula_units_Z   4
loop_
 _symmetry_equiv_pos_site_id
 _symmetry_equiv_pos_as_xyz
  1  'x, y, z'
loop_
 _atom_site_type_symbol
 _atom_site_label
 _atom_site_symmetry_multiplicity
 _atom_site_fract_x
 _atom_site_fract_y
 _atom_site_fract_z
 _atom_site_occupancy
  Na  Na0  1  0.54750446  0.78951736  0.74840703  1.0
  Na  Na1  1  0.13280268  0.07959135  0.77607930  1.0
  Na  Na2  1  0.54764089  0.09177522  0.23677787  1.0
  Na  Na3  1  0.41970905  0.52053039  0.34699573  1.0
  Cl  Cl4  1  0.62660781  0.50000000  0.74125695  1.0
  Cl  Cl5  1  0.20699400  0.50000000  0.71120078  1.0
  Cl  Cl6  1  0.36103088  0.35603205  0.04546187  1.0
  Cl  Cl7  1  0.28009034  0.22823754  0.42047890  1.0
