# generated using pymatgen
data_NaCl
_symmetry_space_group_name_H-M   'P 1'
_cell_length_a   5.83384273
_cell_length_b   10.73538144
_cell_length_c   7.06888608
_cell_angle_alpha   90.00000000
_cell_angle_beta   39.80540869
_cell_angle_gamma   90.00000000
_symmetry_Int_Tables_number   1
_chemical_formula_structural   NaCl
_chemical_formula_sum   'Na4 Cl4'
_cell_volume   283.41758269
_cell_formula_units_Z   4
loop_
 _symmetry_equiv_pos_site_id
 _symmetry_equiv_pos_as_xyz
  1  'x, y, z'
loop_
 _atom_site_type_symbol
 _atom_site_label
 _atom_site_symmetry_multiplicity
 _atom_site_fract_x
 _atom_site_fract_y
 _atom_site_fract_z
 _atom_site_occupancy
  Na  Na0  1  0.55827251  0.25000000  0.59585582  1.0
  Na  Na1  1  0.39102490  0.75000000  0.23766483  1.0
  Na  Na2  1  0.50277711  0.25000000  0.14696087  1.0
  Na  Na3  1  0.46733989  0.75000000  0.76290005  1.0
  Cl  Cl4  1  0.47236508  0.01758094  0.98524425  1.0
  Cl  Cl5  1  0.77450035  0.24533356  0.32405832  1.0
  Cl  Cl6  1  0.93934749  0.61901103  0.93688737  1.0
  Cl  Cl7  1  0.18854672  0.25046533  0.66270549  1.0
