# generated using pymatgen
data_NaCl
_symmetry_space_group_name_H-M   'P 1'
_cell_length_a   4.87699542
_cell_length_b   12.65917952
_cell_length_c   6.21076292
_cell_angle_alpha   90.00000000
_cell_angle_beta   55.56140976
_cell_angle_gamma   90.00000000
_symmetry_Int_Tables_number   1
_chemical_formula_structural   NaCl
_chemical_formula_sum   'Na4 Cl4'
_cell_volume   316.23950388
_cell_formula_units_Z   4
loop_
 _symmetry_equiv_pos_site_id
 _symmetry_equiv_pos_as_xyz
  1  'x, y, z'
loop_
 _atom_site_type_symbol
 _atom_site_label
 _atom_site_symmetry_multiplicity
 _atom_site_fract_x
 _atom_site_fract_y
 _atom_site_fract_z
 _atom_site_occupancy
  Na  Na0  1  0.00059568  0.47046567  0.45428020  1.0
  Na  Na1  1  0.57256269  0.13840487  0.26142311  1.0
  Na  Na2  1  0.67432786  0.80265701  0.13479113  1.0
  Na  Na3  1  0.05400681  0.18474392  0.81860209  1.0
  Cl  Cl4  1  0.63542924  0.25472048  0.84620920  1.0
  Cl  Cl5  1  0.12053875  0.40814640  0.13590246  1.0
  Cl  Cl6  1  0.11454271  0.79718171  0.05294321  1.0
  Cl  Cl7  1  0.85834439  0.59370440  0.96577884  1.0
