# generated using pymatgen
data_NaCl
_symmetry_space_group_name_H-M   'P 1'
_cell_length_a   6.83187255
_cell_length_b   2.06374254
_cell_length_c   17.22633857
_cell_angle_alpha   90.00000000
_cell_angle_beta   90.00000000
_cell_angle_gamma   90.00000000
_symmetry_Int_Tables_number   1
_chemical_formula_structural   NaCl
_chemical_formula_sum   'Na4 Cl4'
_cell_volume   242.87804081
_cell_formula_units_Z   4
loop_
 _symmetry_equiv_pos_site_id
 _symmetry_equiv_pos_as_xyz
  1  'x, y, z'
loop_
 _atom_site_type_symbol
 _atom_site_label
 _atom_site_symmetry_multiplicity
 _atom_site_fract_x
 _atom_site_fract_y
 _atom_site_fract_z
 _atom_site_occupancy
  Na  Na0  1  0.00000000  0.97118303  0.57538989  1.0
  Na  Na1  1  0.50000000  0.12540828  0.35477489  1.0
  Na  Na2  1  0.50000000  0.27737873  0.08220910  1.0
  Na  Na3  1  0.00000000  0.93406224  0.67362605  1.0
  Cl  Cl4  1  0.63115264  0.00000000  0.00000000  1.0
  Cl  Cl5  1  0.23138222  0.00000000  0.50000000  1.0
  Cl  Cl6  1  0.06729886  0.00000000  0.00000000  1.0
  Cl  Cl7  1  0.43086608  0.00000000  0.50000000  1.0
