# generated using pymatgen
data_NaCl
_symmetry_space_group_name_H-M   'P 1'
_cell_length_a   5.52198156
_cell_length_b   8.72463182
_cell_length_c   5.49204209
_cell_angle_alpha   90.00000000
_cell_angle_beta   90.00000000
_cell_angle_gamma   90.00000000
_symmetry_Int_Tables_number   1
_chemical_formula_structural   NaCl
_chemical_formula_sum   'Na4 Cl4'
_cell_volume   264.59151789
_cell_formula_units_Z   4
loop_
 _symmetry_equiv_pos_site_id
 _symmetry_equiv_pos_as_xyz
  1  'x, y, z'
loop_
 _atom_site_type_symbol
 _atom_site_label
 _atom_site_symmetry_multiplicity
 _atom_site_fract_x
 _atom_site_fract_y
 _atom_site_fract_z
 _atom_site_occupancy
  Na  Na0  1  0.21542232  0.71217603  0.71095102  1.0
  Na  Na1  1  0.45726438  0.02198961  0.37920146  1.0
  Na  Na2  1  0.46589875  0.88495398  0.67947384  1.0
  Na  Na3  1  0.04400572  0.12286426  0.79187651  1.0
  Cl  Cl4  1  0.53096804  0.06070760  0.89750381  1.0
  Cl  Cl5  1  0.89262395  0.32324803  0.20716247  1.0
  Cl  Cl6  1  0.31978042  0.75570103  0.50006031  1.0
  Cl  Cl7  1  0.79676024  0.71872386  0.42257999  1.0
