# generated using pymatgen
data_NaCl
_symmetry_space_group_name_H-M   'P 1'
_cell_length_a   5.11731365
_cell_length_b   10.36913432
_cell_length_c   7.23538026
_cell_angle_alpha   90.00000000
_cell_angle_beta   90.00000000
_cell_angle_gamma   90.00000000
_symmetry_Int_Tables_number   1
_chemical_formula_structural   NaCl
_chemical_formula_sum   'Na4 Cl4'
_cell_volume   383.92456202
_cell_formula_units_Z   4
loop_
 _symmetry_equiv_pos_site_id
 _symmetry_equiv_pos_as_xyz
  1  'x, y, z'
loop_
 _atom_site_type_symbol
 _atom_site_label
 _atom_site_symmetry_multiplicity
 _atom_site_fract_x
 _atom_site_fract_y
 _atom_site_fract_z
 _atom_site_occupancy
  Na  Na0  1  0.25000000  0.63878077  0.77844396  1.0
  Na  Na1  1  0.75000000  0.24058740  0.98047335  1.0
  Na  Na2  1  0.75000000  0.75581525  0.74312852  1.0
  Na  Na3  1  0.25000000  0.35005710  0.06139545  1.0
  Cl  Cl4  1  0.25000000  0.15318112  0.75536243  1.0
  Cl  Cl5  1  0.75000000  0.09508390  0.56758307  1.0
  Cl  Cl6  1  0.75000000  0.66753430  0.58685660  1.0
  Cl  Cl7  1  0.25000000  0.28860282  0.76035710  1.0
