# generated using pymatgen
data_NaCl
_symmetry_space_group_name_H-M   'P 1'
_cell_length_a   3.84367232
_cell_length_b   10.77432143
_cell_length_c   8.20642083
_cell_angle_alpha   90.00000000
_cell_angle_beta   33.44946651
_cell_angle_gamma   90.00000000
_symmetry_Int_Tables_number   1
_chemical_formula_structural   NaCl
_chemical_formula_sum   'Na4 Cl4'
_cell_volume   187.32696806
_cell_formula_units_Z   4
loop_
 _symmetry_equiv_pos_site_id
 _symmetry_equiv_pos_as_xyz
  1  'x, y, z'
loop_
 _atom_site_type_symbol
 _atom_site_label
 _atom_site_symmetry_multiplicity
 _atom_site_fract_x
 _atom_site_fract_y
 _atom_site_fract_z
 _atom_site_occupancy
  Na  Na0  1  0.25553446  0.77750173  0.81135020  1.0
  Na  Na1  1  0.02233660  0.25049582  0.33255799  1.0
  Na  Na2  1  0.90824740  0.84911517  0.27092456  1.0
  Na  Na3  1  0.38936650  0.40893394  0.96920083  1.0
  Cl  Cl4  1  0.91065349  0.15771482  0.70473243  1.0
  Cl  Cl5  1  0.46725300  0.08202642  0.97563313  1.0
  Cl  Cl6  1  0.45070408  0.67855716  0.07566145  1.0
  Cl  Cl7  1  0.79772578  0.01762905  0.68427989  1.0
