# generated using pymatgen
data_NaCl
_symmetry_space_group_name_H-M   'P 1'
_cell_length_a   10.91489398
_cell_length_b   2.00521587
_cell_length_c   3.83838180
_cell_angle_alpha   90.00000000
_cell_angle_beta   90.00000000
_cell_angle_gamma   90.00000000
_symmetry_Int_Tables_number   1
_chemical_formula_structural   NaCl
_chemical_formula_sum   'Na4 Cl4'
_cell_volume   84.00958244
_cell_formula_units_Z   4
loop_
 _symmetry_equiv_pos_site_id
 _symmetry_equiv_pos_as_xyz
  1  'x, y, z'
loop_
 _atom_site_type_symbol
 _atom_site_label
 _atom_site_symmetry_multiplicity
 _atom_site_fract_x
 _atom_site_fract_y
 _atom_site_fract_z
 _atom_site_occupancy
  Na  Na0  1  0.54898494  0.25000000  0.85835431  1.0
  Na  Na1  1  0.31227817  0.75000000  0.42673056  1.0
  Na  Na2  1  0.51134033  0.75000000  0.50600019  1.0
  Na  Na3  1  0.41469214  0.25000000  0.85097987  1.0
  Cl  Cl4  1  0.04196327  0.25000000  0.59125606  1.0
  Cl  Cl5  1  0.97563900  0.75000000  0.24520967  1.0
  Cl  Cl6  1  0.95904939  0.75000000  0.60198731  1.0
  Cl  Cl7  1  0.46723463  0.25000000  0.58347448  1.0
