# generated using pymatgen
data_NaCl
_symmetry_space_group_name_H-M   'P 1'
_cell_length_a   5.23205202
_cell_length_b   10.48831944
_cell_length_c   6.66828382
_cell_angle_alpha   90.00000000
_cell_angle_beta   40.26963509
_cell_angle_gamma   90.00000000
_symmetry_Int_Tables_number   1
_chemical_formula_structural   NaCl
_chemical_formula_sum   'Na4 Cl4'
_cell_volume   236.52858883
_cell_formula_units_Z   4
loop_
 _symmetry_equiv_pos_site_id
 _symmetry_equiv_pos_as_xyz
  1  'x, y, z'
loop_
 _atom_site_type_symbol
 _atom_site_label
 _atom_site_symmetry_multiplicity
 _atom_site_fract_x
 _atom_site_fract_y
 _atom_site_fract_z
 _atom_site_occupancy
  Na  Na0  1  0.59474806  0.16513697  0.80812519  1.0
  Na  Na1  1  0.06399731  0.22935428  0.82011776  1.0
  Na  Na2  1  0.33375575  0.24738384  0.22983183  1.0
  Na  Na3  1  0.90843834  0.90407961  0.45178416  1.0
  Cl  Cl4  1  0.57802773  0.50000000  0.76413602  1.0
  Cl  Cl5  1  0.37420844  0.50000000  0.52804282  1.0
  Cl  Cl6  1  0.83837759  0.55547552  0.11464543  1.0
  Cl  Cl7  1  0.18895484  0.71001573  0.26723725  1.0
