# generated using pymatgen
data_NaCl
_symmetry_space_group_name_H-M   'P 1'
_cell_length_a   5.11376915
_cell_length_b   11.59672261
_cell_length_c   5.74946395
_cell_angle_alpha   90.00000000
_cell_angle_beta   90.00000000
_cell_angle_gamma   90.00000000
_symmetry_Int_Tables_number   1
_chemical_formula_structural   NaCl
_chemical_formula_sum   'Na4 Cl4'
_cell_volume   340.96024401
_cell_formula_units_Z   4
loop_
 _symmetry_equiv_pos_site_id
 _symmetry_equiv_pos_as_xyz
  1  'x, y, z'
loop_
 _atom_site_type_symbol
 _atom_site_label
 _atom_site_symmetry_multiplicity
 _atom_site_fract_x
 _atom_site_fract_y
 _atom_site_fract_z
 _atom_site_occupancy
  Na  Na0  1  0.11929820  0.79486114  0.65320852  1.0
  Na  Na1  1  0.85654283  0.10023443  0.26907159  1.0
  Na  Na2  1  0.73605473  0.74108162  0.41871534  1.0
  Na  Na3  1  0.07887687  0.35867736  0.78081769  1.0
  Cl  Cl4  1  0.42001254  0.10746294  0.96909089  1.0
  Cl  Cl5  1  0.36410616  0.30510568  0.26860595  1.0
  Cl  Cl6  1  0.40820835  0.68801263  0.42256454  1.0
  Cl  Cl7  1  0.67836324  0.63230980  0.62047779  1.0
