# generated using pymatgen
data_NaCl
_symmetry_space_group_name_H-M   'P 1'
_cell_length_a   4.36075189
_cell_length_b   19.43614236
_cell_length_c   6.29562331
_cell_angle_alpha   90.00000000
_cell_angle_beta   46.81175199
_cell_angle_gamma   90.00000000
_symmetry_Int_Tables_number   1
_chemical_formula_structural   NaCl
_chemical_formula_sum   'Na4 Cl4'
_cell_volume   389.04752332
_cell_formula_units_Z   4
loop_
 _symmetry_equiv_pos_site_id
 _symmetry_equiv_pos_as_xyz
  1  'x, y, z'
loop_
 _atom_site_type_symbol
 _atom_site_label
 _atom_site_symmetry_multiplicity
 _atom_site_fract_x
 _atom_site_fract_y
 _atom_site_fract_z
 _atom_site_occupancy
  Na  Na0  1  0.37028135  0.80426183  0.71675222  1.0
  Na  Na1  1  0.38538656  0.50617456  0.18373072  1.0
  Na  Na2  1  0.98362129  0.87644730  0.22107956  1.0
  Na  Na3  1  0.05536569  0.98038864  0.80539126  1.0
  Cl  Cl4  1  0.00000000  0.18439398  0.00000000  1.0
  Cl  Cl5  1  0.50000000  0.24470714  0.00000000  1.0
  Cl  Cl6  1  0.00000000  0.15049707  0.50000000  1.0
  Cl  Cl7  1  0.50000000  0.18220069  0.50000000  1.0
