# generated using pymatgen
data_NaCl
_symmetry_space_group_name_H-M   'P 1'
_cell_length_a   12.00729533
_cell_length_b   9.67999943
_cell_length_c   3.50810499
_cell_angle_alpha   90.00000000
_cell_angle_beta   90.00000000
_cell_angle_gamma   90.00000000
_symmetry_Int_Tables_number   1
_chemical_formula_structural   NaCl
_chemical_formula_sum   'Na4 Cl4'
_cell_volume   407.74918977
_cell_formula_units_Z   4
loop_
 _symmetry_equiv_pos_site_id
 _symmetry_equiv_pos_as_xyz
  1  'x, y, z'
loop_
 _atom_site_type_symbol
 _atom_site_label
 _atom_site_symmetry_multiplicity
 _atom_site_fract_x
 _atom_site_fract_y
 _atom_site_fract_z
 _atom_site_occupancy
  Na  Na0  1  0.00000000  0.93285691  0.49105872  1.0
  Na  Na1  1  0.00000000  0.20487182  0.95871526  1.0
  Na  Na2  1  0.50000000  0.57945286  0.15280579  1.0
  Na  Na3  1  0.50000000  0.26094233  0.81175117  1.0
  Cl  Cl4  1  0.00000000  0.00000000  0.89605308  1.0
  Cl  Cl5  1  0.50000000  0.50000000  0.63322061  1.0
  Cl  Cl6  1  0.00000000  0.50000000  0.14408182  1.0
  Cl  Cl7  1  0.50000000  0.00000000  0.41505856  1.0
