# generated using pymatgen
data_NaCl
_symmetry_space_group_name_H-M   'P 1'
_cell_length_a   8.55058322
_cell_length_b   12.32184267
_cell_length_c   2.51352066
_cell_angle_alpha   90.00000000
_cell_angle_beta   90.00000000
_cell_angle_gamma   90.00000000
_symmetry_Int_Tables_number   1
_chemical_formula_structural   NaCl
_chemical_formula_sum   'Na4 Cl4'
_cell_volume   264.82187536
_cell_formula_units_Z   4
loop_
 _symmetry_equiv_pos_site_id
 _symmetry_equiv_pos_as_xyz
  1  'x, y, z'
loop_
 _atom_site_type_symbol
 _atom_site_label
 _atom_site_symmetry_multiplicity
 _atom_site_fract_x
 _atom_site_fract_y
 _atom_site_fract_z
 _atom_site_occupancy
  Na  Na0  1  0.23166812  0.69185376  0.00000000  1.0
  Na  Na1  1  0.52127015  0.47311659  0.00000000  1.0
  Na  Na2  1  0.87420337  0.60298364  0.00000000  1.0
  Na  Na3  1  0.12599564  0.37728505  0.00000000  1.0
  Cl  Cl4  1  0.20359355  0.22709010  0.50000000  1.0
  Cl  Cl5  1  0.81946440  0.31035566  0.50000000  1.0
  Cl  Cl6  1  0.77482114  0.71182473  0.50000000  1.0
  Cl  Cl7  1  0.61262457  0.50468679  0.50000000  1.0
