# generated using pymatgen
data_NaCl
_symmetry_space_group_name_H-M   'P 1'
_cell_length_a   3.59501912
_cell_length_b   10.60725722
_cell_length_c   6.42575249
_cell_angle_alpha   90.00000000
_cell_angle_beta   90.00000000
_cell_angle_gamma   90.00000000
_symmetry_Int_Tables_number   1
_chemical_formula_structural   NaCl
_chemical_formula_sum   'Na4 Cl4'
_cell_volume   245.03509934
_cell_formula_units_Z   4
loop_
 _symmetry_equiv_pos_site_id
 _symmetry_equiv_pos_as_xyz
  1  'x, y, z'
loop_
 _atom_site_type_symbol
 _atom_site_label
 _atom_site_symmetry_multiplicity
 _atom_site_fract_x
 _atom_site_fract_y
 _atom_site_fract_z
 _atom_site_occupancy
  Na  Na0  1  0.32213964  0.69121288  0.81884470  1.0
  Na  Na1  1  0.95150880  0.18635921  0.40993716  1.0
  Na  Na2  1  0.66286232  0.72162388  0.21551615  1.0
  Na  Na3  1  0.07336646  0.22611989  0.06522032  1.0
  Cl  Cl4  1  0.47989650  0.16541163  0.73035617  1.0
  Cl  Cl5  1  0.61749615  0.10910940  0.01960538  1.0
  Cl  Cl6  1  0.43183525  0.82563058  0.07592883  1.0
  Cl  Cl7  1  0.36537272  0.30392860  0.74458960  1.0
