# generated using pymatgen
data_NaCl
_symmetry_space_group_name_H-M   'P 1'
_cell_length_a   6.61141511
_cell_length_b   6.61141511
_cell_length_c   2.50107865
_cell_angle_alpha   90.00000000
_cell_angle_beta   90.00000000
_cell_angle_gamma   90.00000000
_symmetry_Int_Tables_number   1
_chemical_formula_structural   NaCl
_chemical_formula_sum   'Na4 Cl4'
_cell_volume   109.32417306
_cell_formula_units_Z   4
loop_
 _symmetry_equiv_pos_site_id
 _symmetry_equiv_pos_as_xyz
  1  'x, y, z'
loop_
 _atom_site_type_symbol
 _atom_site_label
 _atom_site_symmetry_multiplicity
 _atom_site_fract_x
 _atom_site_fract_y
 _atom_site_fract_z
 _atom_site_occupancy
  Na  Na0  1  0.19188576  0.75199702  0.53838560  1.0
  Na  Na1  1  0.43531490  0.01840941  0.34223982  1.0
  Na  Na2  1  0.73099756  0.20933916  0.83541543  1.0
  Na  Na3  1  0.15857528  0.42925135  0.66577188  1.0
  Cl  Cl4  1  0.38323892  0.16890602  0.89279191  1.0
  Cl  Cl5  1  0.76698560  0.38482668  0.18086552  1.0
  Cl  Cl6  1  0.78679618  0.66522833  0.82551633  1.0
  Cl  Cl7  1  0.81073964  0.79467903  0.67754295  1.0
