# generated using pymatgen
data_NaCl
_symmetry_space_group_name_H-M   'P 1'
_cell_length_a   5.40212686
_cell_length_b   8.59401012
_cell_length_c   3.27021625
_cell_angle_alpha   90.00000000
_cell_angle_beta   90.00000000
_cell_angle_gamma   90.00000000
_symmetry_Int_Tables_number   1
_chemical_formula_structural   NaCl
_chemical_formula_sum   'Na4 Cl4'
_cell_volume   151.82284021
_cell_formula_units_Z   4
loop_
 _symmetry_equiv_pos_site_id
 _symmetry_equiv_pos_as_xyz
  1  'x, y, z'
loop_
 _atom_site_type_symbol
 _atom_site_label
 _atom_site_symmetry_multiplicity
 _atom_site_fract_x
 _atom_site_fract_y
 _atom_site_fract_z
 _atom_site_occupancy
  Na  Na0  1  0.08196338  0.79138507  0.67737292  1.0
  Na  Na1  1  0.93699192  0.07638588  0.29680224  1.0
  Na  Na2  1  0.52641722  0.57031385  0.33779630  1.0
  Na  Na3  1  0.10279607  0.37842714  0.74002199  1.0
  Cl  Cl4  1  0.51847445  0.10151187  0.93567325  1.0
  Cl  Cl5  1  0.33406610  0.33230063  0.23802500  1.0
  Cl  Cl6  1  0.56891654  0.86916757  0.46943514  1.0
  Cl  Cl7  1  0.75475188  0.76433773  0.52254143  1.0
