# generated using pymatgen
data_NaCl
_symmetry_space_group_name_H-M   'P 1'
_cell_length_a   8.11571784
_cell_length_b   8.11571784
_cell_length_c   5.95358976
_cell_angle_alpha   90.00000000
_cell_angle_beta   90.00000000
_cell_angle_gamma   120.00000000
_symmetry_Int_Tables_number   1
_chemical_formula_structural   NaCl
_chemical_formula_sum   'Na4 Cl4'
_cell_volume   339.59666477
_cell_formula_units_Z   4
loop_
 _symmetry_equiv_pos_site_id
 _symmetry_equiv_pos_as_xyz
  1  'x, y, z'
loop_
 _atom_site_type_symbol
 _atom_site_label
 _atom_site_symmetry_multiplicity
 _atom_site_fract_x
 _atom_site_fract_y
 _atom_site_fract_z
 _atom_site_occupancy
  Na  Na0  1  0.00000000  0.00000000  0.74714652  1.0
  Na  Na1  1  0.64262050  0.00000000  0.90081523  1.0
  Na  Na2  1  0.00000000  0.08035971  0.47215544  1.0
  Na  Na3  1  0.36896550  0.36896550  0.20361320  1.0
  Cl  Cl4  1  0.33333333  0.66666667  0.91763746  1.0
  Cl  Cl5  1  0.66666667  0.33333333  0.74533378  1.0
  Cl  Cl6  1  0.33333333  0.66666667  0.09639075  1.0
  Cl  Cl7  1  0.66666667  0.33333333  0.40935338  1.0
