# generated using pymatgen
data_NaCl
_symmetry_space_group_name_H-M   'P 1'
_cell_length_a   7.84588192
_cell_length_b   7.84588192
_cell_length_c   5.98006453
_cell_angle_alpha   90.00000000
_cell_angle_beta   90.00000000
_cell_angle_gamma   90.00000000
_symmetry_Int_Tables_number   1
_chemical_formula_structural   NaCl
_chemical_formula_sum   'Na4 Cl4'
_cell_volume   368.11999368
_cell_formula_units_Z   4
loop_
 _symmetry_equiv_pos_site_id
 _symmetry_equiv_pos_as_xyz
  1  'x, y, z'
loop_
 _atom_site_type_symbol
 _atom_site_label
 _atom_site_symmetry_multiplicity
 _atom_site_fract_x
 _atom_site_fract_y
 _atom_site_fract_z
 _atom_site_occupancy
  Na  Na0  1  0.09681030  0.09681030  0.00000000  1.0
  Na  Na1  1  0.26488429  0.26488429  0.50000000  1.0
  Na  Na2  1  0.30815025  0.69184975  0.75000000  1.0
  Na  Na3  1  0.15415541  0.84584459  0.25000000  1.0
  Cl  Cl4  1  0.57374747  0.57374747  0.00000000  1.0
  Cl  Cl5  1  0.94052565  0.94052565  0.50000000  1.0
  Cl  Cl6  1  0.65358496  0.34641504  0.75000000  1.0
  Cl  Cl7  1  0.78390856  0.21609144  0.25000000  1.0
