# generated using pymatgen
data_NaCl
_symmetry_space_group_name_H-M   'P 1'
_cell_length_a   6.73136659
_cell_length_b   8.95563073
_cell_length_c   5.92275113
_cell_angle_alpha   90.00000000
_cell_angle_beta   41.38757156
_cell_angle_gamma   90.00000000
_symmetry_Int_Tables_number   1
_chemical_formula_structural   NaCl
_chemical_formula_sum   'Na4 Cl4'
_cell_volume   236.05996637
_cell_formula_units_Z   4
loop_
 _symmetry_equiv_pos_site_id
 _symmetry_equiv_pos_as_xyz
  1  'x, y, z'
loop_
 _atom_site_type_symbol
 _atom_site_label
 _atom_site_symmetry_multiplicity
 _atom_site_fract_x
 _atom_site_fract_y
 _atom_site_fract_z
 _atom_site_occupancy
  Na  Na0  1  0.51429956  0.71389950  0.75920747  1.0
  Na  Na1  1  0.02003857  0.08779932  0.34656511  1.0
  Na  Na2  1  0.45325901  0.05177544  0.13313289  1.0
  Na  Na3  1  0.50968719  0.91457501  0.84432937  1.0
  Cl  Cl4  1  0.58916601  0.17501183  0.76928627  1.0
  Cl  Cl5  1  0.14943282  0.45136681  0.15262120  1.0
  Cl  Cl6  1  0.28700811  0.21951380  0.09214039  1.0
  Cl  Cl7  1  0.14706240  0.23891597  0.86263711  1.0
