# generated using pymatgen
data_NaCl
_symmetry_space_group_name_H-M   'P 1'
_cell_length_a   4.48249121
_cell_length_b   4.48249121
_cell_length_c   6.83520363
_cell_angle_alpha   90.00000000
_cell_angle_beta   90.00000000
_cell_angle_gamma   90.00000000
_symmetry_Int_Tables_number   1
_chemical_formula_structural   NaCl
_chemical_formula_sum   'Na4 Cl4'
_cell_volume   137.33788359
_cell_formula_units_Z   4
loop_
 _symmetry_equiv_pos_site_id
 _symmetry_equiv_pos_as_xyz
  1  'x, y, z'
loop_
 _atom_site_type_symbol
 _atom_site_label
 _atom_site_symmetry_multiplicity
 _atom_site_fract_x
 _atom_site_fract_y
 _atom_site_fract_z
 _atom_site_occupancy
  Na  Na0  1  0.27228725  0.16436298  0.56983264  1.0
  Na  Na1  1  0.34095101  0.10261441  0.23040030  1.0
  Na  Na2  1  0.95346504  0.54658698  0.47693394  1.0
  Na  Na3  1  0.00010588  0.34687043  0.22803791  1.0
  Cl  Cl4  1  0.19717776  0.23405751  0.98189562  1.0
  Cl  Cl5  1  0.66812639  0.22524933  0.01140608  1.0
  Cl  Cl6  1  0.99693597  0.95111213  0.37082784  1.0
  Cl  Cl7  1  0.86351326  0.72390633  0.12484093  1.0
