# generated using pymatgen
data_NaCl
_symmetry_space_group_name_H-M   'P 1'
_cell_length_a   4.02733274
_cell_length_b   8.53571318
_cell_length_c   5.86735716
_cell_angle_alpha   90.00000000
_cell_angle_beta   43.52936444
_cell_angle_gamma   90.00000000
_symmetry_Int_Tables_number   1
_chemical_formula_structural   NaCl
_chemical_formula_sum   'Na4 Cl4'
_cell_volume   138.91414934
_cell_formula_units_Z   4
loop_
 _symmetry_equiv_pos_site_id
 _symmetry_equiv_pos_as_xyz
  1  'x, y, z'
loop_
 _atom_site_type_symbol
 _atom_site_label
 _atom_site_symmetry_multiplicity
 _atom_site_fract_x
 _atom_site_fract_y
 _atom_site_fract_z
 _atom_site_occupancy
  Na  Na0  1  0.41860558  0.81338196  0.65713547  1.0
  Na  Na1  1  0.65476921  0.38985632  0.20007152  1.0
  Na  Na2  1  0.15683414  0.05154040  0.56459985  1.0
  Na  Na3  1  0.45789640  0.51445668  0.65095093  1.0
  Cl  Cl4  1  0.32339489  0.00320865  0.81135031  1.0
  Cl  Cl5  1  0.87916807  0.02568277  0.31631577  1.0
  Cl  Cl6  1  0.73414025  0.13122205  0.01567393  1.0
  Cl  Cl7  1  0.77210175  0.32359880  0.94767869  1.0
