# generated using pymatgen
data_NaCl
_symmetry_space_group_name_H-M   'P 1'
_cell_length_a   6.40282550
_cell_length_b   9.12633103
_cell_length_c   6.33862081
_cell_angle_alpha   90.00000000
_cell_angle_beta   53.01929905
_cell_angle_gamma   90.00000000
_symmetry_Int_Tables_number   1
_chemical_formula_structural   NaCl
_chemical_formula_sum   'Na4 Cl4'
_cell_volume   295.88398993
_cell_formula_units_Z   4
loop_
 _symmetry_equiv_pos_site_id
 _symmetry_equiv_pos_as_xyz
  1  'x, y, z'
loop_
 _atom_site_type_symbol
 _atom_site_label
 _atom_site_symmetry_multiplicity
 _atom_site_fract_x
 _atom_site_fract_y
 _atom_site_fract_z
 _atom_site_occupancy
  Na  Na0  1  0.68718494  0.75814901  0.67945096  1.0
  Na  Na1  1  0.48055875  0.41064792  0.26583426  1.0
  Na  Na2  1  0.46208408  0.14611779  0.19044811  1.0
  Na  Na3  1  0.36324296  0.60336516  0.68489589  1.0
  Cl  Cl4  1  0.47394278  0.11531523  0.95134925  1.0
  Cl  Cl5  1  0.82735643  0.11836263  0.34171113  1.0
  Cl  Cl6  1  0.44431527  0.31923801  0.01901194  1.0
  Cl  Cl7  1  0.79977489  0.20617366  0.62696555  1.0
