# generated using pymatgen
data_NaCl
_symmetry_space_group_name_H-M   'P 1'
_cell_length_a   6.71982859
_cell_length_b   9.20823235
_cell_length_c   5.57474365
_cell_angle_alpha   90.00000000
_cell_angle_beta   20.01387740
_cell_angle_gamma   90.00000000
_symmetry_Int_Tables_number   1
_chemical_formula_structural   NaCl
_chemical_formula_sum   'Na4 Cl4'
_cell_volume   118.05922984
_cell_formula_units_Z   4
loop_
 _symmetry_equiv_pos_site_id
 _symmetry_equiv_pos_as_xyz
  1  'x, y, z'
loop_
 _atom_site_type_symbol
 _atom_site_label
 _atom_site_symmetry_multiplicity
 _atom_site_fract_x
 _atom_site_fract_y
 _atom_site_fract_z
 _atom_site_occupancy
  Na  Na0  1  0.43363268  0.57154446  0.74864880  1.0
  Na  Na1  1  0.99662953  0.38885255  0.18291622  1.0
  Na  Na2  1  0.34055761  0.17627825  0.18382801  1.0
  Na  Na3  1  0.51541127  0.55792739  0.39985293  1.0
  Cl  Cl4  1  0.56682495  0.07414077  0.84142176  1.0
  Cl  Cl5  1  0.50026611  0.42957375  0.32703988  1.0
  Cl  Cl6  1  0.88815593  0.23429143  0.01697381  1.0
  Cl  Cl7  1  0.81642123  0.69034386  0.70328407  1.0
