# generated using pymatgen
data_NaCl
_symmetry_space_group_name_H-M   'P 1'
_cell_length_a   6.34227550
_cell_length_b   6.34227550
_cell_length_c   4.93958569
_cell_angle_alpha   90.00000000
_cell_angle_beta   90.00000000
_cell_angle_gamma   90.00000000
_symmetry_Int_Tables_number   1
_chemical_formula_structural   NaCl
_chemical_formula_sum   'Na4 Cl4'
_cell_volume   198.69215968
_cell_formula_units_Z   4
loop_
 _symmetry_equiv_pos_site_id
 _symmetry_equiv_pos_as_xyz
  1  'x, y, z'
loop_
 _atom_site_type_symbol
 _atom_site_label
 _atom_site_symmetry_multiplicity
 _atom_site_fract_x
 _atom_site_fract_y
 _atom_site_fract_z
 _atom_site_occupancy
  Na  Na0  1  0.24091293  0.24091293  0.10517047  1.0
  Na  Na1  1  0.68157066  0.68157066  0.20688443  1.0
  Na  Na2  1  0.03452746  0.96547254  0.73097212  1.0
  Na  Na3  1  0.98694197  0.01305803  0.11276479  1.0
  Cl  Cl4  1  0.00000000  0.50000000  0.72164370  1.0
  Cl  Cl5  1  0.00000000  0.50000000  0.30339867  1.0
  Cl  Cl6  1  0.50000000  0.00000000  0.74394484  1.0
  Cl  Cl7  1  0.50000000  0.00000000  0.04456157  1.0
