# generated using pymatgen
data_NaCl
_symmetry_space_group_name_H-M   'P 1'
_cell_length_a   6.17773119
_cell_length_b   6.17773119
_cell_length_c   3.53317120
_cell_angle_alpha   90.00000000
_cell_angle_beta   90.00000000
_cell_angle_gamma   90.00000000
_symmetry_Int_Tables_number   1
_chemical_formula_structural   NaCl
_chemical_formula_sum   'Na4 Cl4'
_cell_volume   134.84122700
_cell_formula_units_Z   4
loop_
 _symmetry_equiv_pos_site_id
 _symmetry_equiv_pos_as_xyz
  1  'x, y, z'
loop_
 _atom_site_type_symbol
 _atom_site_label
 _atom_site_symmetry_multiplicity
 _atom_site_fract_x
 _atom_site_fract_y
 _atom_site_fract_z
 _atom_site_occupancy
  Na  Na0  1  0.28507832  0.78507832  0.25000000  1.0
  Na  Na1  1  0.55287105  0.05287105  0.25000000  1.0
  Na  Na2  1  0.19142874  0.30857126  0.75000000  1.0
  Na  Na3  1  0.80081167  0.69918833  0.75000000  1.0
  Cl  Cl4  1  0.29006709  0.20993291  0.25000000  1.0
  Cl  Cl5  1  0.72767593  0.77232407  0.25000000  1.0
  Cl  Cl6  1  0.72907648  0.22907648  0.75000000  1.0
  Cl  Cl7  1  0.60554731  0.10554731  0.75000000  1.0
