# generated using pymatgen
data_NaCl
_symmetry_space_group_name_H-M   'P 1'
_cell_length_a   5.28659850
_cell_length_b   5.28659850
_cell_length_c   3.44788348
_cell_angle_alpha   90.00000000
_cell_angle_beta   90.00000000
_cell_angle_gamma   120.00000000
_symmetry_Int_Tables_number   1
_chemical_formula_structural   NaCl
_chemical_formula_sum   'Na4 Cl4'
_cell_volume   83.45183084
_cell_formula_units_Z   4
loop_
 _symmetry_equiv_pos_site_id
 _symmetry_equiv_pos_as_xyz
  1  'x, y, z'
loop_
 _atom_site_type_symbol
 _atom_site_label
 _atom_site_symmetry_multiplicity
 _atom_site_fract_x
 _atom_site_fract_y
 _atom_site_fract_z
 _atom_site_occupancy
  Na  Na0  1  0.66666667  0.33333333  0.00000000  1.0
  Na  Na1  1  0.52346168  0.91871598  0.50000000  1.0
  Na  Na2  1  0.99105425  0.42470472  0.50000000  1.0
  Na  Na3  1  0.67384735  0.47439267  0.50000000  1.0
  Cl  Cl4  1  0.00000000  0.00000000  0.50000000  1.0
  Cl  Cl5  1  0.15211801  0.76949526  0.00000000  1.0
  Cl  Cl6  1  0.96245206  0.45897288  0.00000000  1.0
  Cl  Cl7  1  0.70263181  0.83769733  0.00000000  1.0
