# generated using pymatgen
data_NaCl
_symmetry_space_group_name_H-M   'P 1'
_cell_length_a   4.79267575
_cell_length_b   8.95586847
_cell_length_c   6.83814040
_cell_angle_alpha   90.00000000
_cell_angle_beta   90.00000000
_cell_angle_gamma   90.00000000
_symmetry_Int_Tables_number   1
_chemical_formula_structural   NaCl
_chemical_formula_sum   'Na4 Cl4'
_cell_volume   293.51058485
_cell_formula_units_Z   4
loop_
 _symmetry_equiv_pos_site_id
 _symmetry_equiv_pos_as_xyz
  1  'x, y, z'
loop_
 _atom_site_type_symbol
 _atom_site_label
 _atom_site_symmetry_multiplicity
 _atom_site_fract_x
 _atom_site_fract_y
 _atom_site_fract_z
 _atom_site_occupancy
  Na  Na0  1  0.68698163  0.85793487  0.79905017  1.0
  Na  Na1  1  0.82482699  0.06195843  0.80189147  1.0
  Na  Na2  1  0.94198423  0.35674605  0.22905409  1.0
  Na  Na3  1  0.99235991  0.52527063  0.28865278  1.0
  Cl  Cl4  1  0.46816478  0.11083233  0.78507531  1.0
  Cl  Cl5  1  0.93249499  0.35204485  0.64313844  1.0
  Cl  Cl6  1  0.89599301  0.16750555  0.09365391  1.0
  Cl  Cl7  1  0.28348905  0.08290894  0.42373128  1.0
