# generated using pymatgen
data_NaCl
_symmetry_space_group_name_H-M   'P 1'
_cell_length_a   9.16916661
_cell_length_b   9.27405373
_cell_length_c   4.36504196
_cell_angle_alpha   90.00000000
_cell_angle_beta   87.98554113
_cell_angle_gamma   90.00000000
_symmetry_Int_Tables_number   1
_chemical_formula_structural   NaCl
_chemical_formula_sum   'Na4 Cl4'
_cell_volume   370.95344837
_cell_formula_units_Z   4
loop_
 _symmetry_equiv_pos_site_id
 _symmetry_equiv_pos_as_xyz
  1  'x, y, z'
loop_
 _atom_site_type_symbol
 _atom_site_label
 _atom_site_symmetry_multiplicity
 _atom_site_fract_x
 _atom_site_fract_y
 _atom_site_fract_z
 _atom_site_occupancy
  Na  Na0  1  0.11983189  0.89118721  0.88380114  1.0
  Na  Na1  1  0.55317018  0.81235855  0.12338726  1.0
  Na  Na2  1  0.26411033  0.56211581  0.31518902  1.0
  Na  Na3  1  0.93002892  0.54044355  0.40870404  1.0
  Cl  Cl4  1  0.00000000  0.14425058  0.00000000  1.0
  Cl  Cl5  1  0.50000000  0.11667412  0.00000000  1.0
  Cl  Cl6  1  0.00000000  0.40709119  0.00000000  1.0
  Cl  Cl7  1  0.50000000  0.44770545  0.00000000  1.0
