# generated using pymatgen
data_NaCl
_symmetry_space_group_name_H-M   'P 1'
_cell_length_a   5.64339958
_cell_length_b   5.64339958
_cell_length_c   6.02469600
_cell_angle_alpha   90.00000000
_cell_angle_beta   90.00000000
_cell_angle_gamma   90.00000000
_symmetry_Int_Tables_number   1
_chemical_formula_structural   NaCl
_chemical_formula_sum   'Na4 Cl4'
_cell_volume   191.87427011
_cell_formula_units_Z   4
loop_
 _symmetry_equiv_pos_site_id
 _symmetry_equiv_pos_as_xyz
  1  'x, y, z'
loop_
 _atom_site_type_symbol
 _atom_site_label
 _atom_site_symmetry_multiplicity
 _atom_site_fract_x
 _atom_site_fract_y
 _atom_site_fract_z
 _atom_site_occupancy
  Na  Na0  1  0.21598684  0.00000000  0.47223882  1.0
  Na  Na1  1  0.37266985  0.00000000  0.69433899  1.0
  Na  Na2  1  0.00000000  0.26420979  0.64261204  1.0
  Na  Na3  1  0.00000000  0.59020841  0.12183688  1.0
  Cl  Cl4  1  0.53811695  0.50000000  0.87429385  1.0
  Cl  Cl5  1  0.76759355  0.50000000  0.78016564  1.0
  Cl  Cl6  1  0.50000000  0.71183772  0.58295996  1.0
  Cl  Cl7  1  0.50000000  0.67362841  0.76634881  1.0
