# generated using pymatgen
data_NaCl
_symmetry_space_group_name_H-M   'P 1'
_cell_length_a   8.40190131
_cell_length_b   8.40190131
_cell_length_c   4.10908767
_cell_angle_alpha   90.00000000
_cell_angle_beta   90.00000000
_cell_angle_gamma   90.00000000
_symmetry_Int_Tables_number   1
_chemical_formula_structural   NaCl
_chemical_formula_sum   'Na4 Cl4'
_cell_volume   290.06849336
_cell_formula_units_Z   4
loop_
 _symmetry_equiv_pos_site_id
 _symmetry_equiv_pos_as_xyz
  1  'x, y, z'
loop_
 _atom_site_type_symbol
 _atom_site_label
 _atom_site_symmetry_multiplicity
 _atom_site_fract_x
 _atom_site_fract_y
 _atom_site_fract_z
 _atom_site_occupancy
  Na  Na0  1  0.55539518  0.05539518  0.79768444  1.0
  Na  Na1  1  0.16230069  0.66230069  0.66875079  1.0
  Na  Na2  1  0.98582811  0.51417189  0.07321645  1.0
  Na  Na3  1  0.09666893  0.40333107  0.39024508  1.0
  Cl  Cl4  1  0.00000000  0.00000000  0.83405457  1.0
  Cl  Cl5  1  0.50000000  0.50000000  0.66739893  1.0
  Cl  Cl6  1  0.00000000  0.00000000  0.12196953  1.0
  Cl  Cl7  1  0.50000000  0.50000000  0.40909342  1.0
