# generated using pymatgen
data_NaCl
_symmetry_space_group_name_H-M   'P 1'
_cell_length_a   3.34718761
_cell_length_b   18.53035944
_cell_length_c   5.84771504
_cell_angle_alpha   90.00000000
_cell_angle_beta   90.00000000
_cell_angle_gamma   90.00000000
_symmetry_Int_Tables_number   1
_chemical_formula_structural   NaCl
_chemical_formula_sum   'Na4 Cl4'
_cell_volume   362.70212502
_cell_formula_units_Z   4
loop_
 _symmetry_equiv_pos_site_id
 _symmetry_equiv_pos_as_xyz
  1  'x, y, z'
loop_
 _atom_site_type_symbol
 _atom_site_label
 _atom_site_symmetry_multiplicity
 _atom_site_fract_x
 _atom_site_fract_y
 _atom_site_fract_z
 _atom_site_occupancy
  Na  Na0  1  0.21423221  0.75041936  0.71895530  1.0
  Na  Na1  1  0.00157813  0.11273943  0.02871041  1.0
  Na  Na2  1  0.57912302  0.60681841  0.40654846  1.0
  Na  Na3  1  0.99001475  0.44440283  0.18604003  1.0
  Cl  Cl4  1  0.34167885  0.49286654  0.88015098  1.0
  Cl  Cl5  1  0.37306762  0.40090325  0.77559512  1.0
  Cl  Cl6  1  0.42159971  0.67303899  0.87594734  1.0
  Cl  Cl7  1  0.70627642  0.51956886  0.68813322  1.0
