# generated using pymatgen
data_NaCl
_symmetry_space_group_name_H-M   'P 1'
_cell_length_a   5.08400313
_cell_length_b   7.88816944
_cell_length_c   3.54020478
_cell_angle_alpha   90.00000000
_cell_angle_beta   43.36259371
_cell_angle_gamma   90.00000000
_symmetry_Int_Tables_number   1
_chemical_formula_structural   NaCl
_chemical_formula_sum   'Na4 Cl4'
_cell_volume   97.48155602
_cell_formula_units_Z   4
loop_
 _symmetry_equiv_pos_site_id
 _symmetry_equiv_pos_as_xyz
  1  'x, y, z'
loop_
 _atom_site_type_symbol
 _atom_site_label
 _atom_site_symmetry_multiplicity
 _atom_site_fract_x
 _atom_site_fract_y
 _atom_site_fract_z
 _atom_site_occupancy
  Na  Na0  1  0.21028016  0.86965316  0.65330490  1.0
  Na  Na1  1  0.55850074  0.05917971  0.28505330  1.0
  Na  Na2  1  0.95703088  0.62445100  0.14180294  1.0
  Na  Na3  1  0.06080038  0.37898183  0.73784417  1.0
  Cl  Cl4  1  0.53885263  0.16301210  0.94055224  1.0
  Cl  Cl5  1  0.17543395  0.37673861  0.16326161  1.0
  Cl  Cl6  1  0.91659914  0.77976238  0.03501834  1.0
  Cl  Cl7  1  0.71200202  0.79041820  0.88511651  1.0
