# generated using pymatgen
data_NaCl
_symmetry_space_group_name_H-M   'P 1'
_cell_length_a   6.31389198
_cell_length_b   10.02944708
_cell_length_c   6.30266957
_cell_angle_alpha   90.00000000
_cell_angle_beta   47.63081629
_cell_angle_gamma   90.00000000
_symmetry_Int_Tables_number   1
_chemical_formula_structural   NaCl
_chemical_formula_sum   'Na4 Cl4'
_cell_volume   294.87373397
_cell_formula_units_Z   4
loop_
 _symmetry_equiv_pos_site_id
 _symmetry_equiv_pos_as_xyz
  1  'x, y, z'
loop_
 _atom_site_type_symbol
 _atom_site_label
 _atom_site_symmetry_multiplicity
 _atom_site_fract_x
 _atom_site_fract_y
 _atom_site_fract_z
 _atom_site_occupancy
  Na  Na0  1  0.43296301  0.67148988  0.93235110  1.0
  Na  Na1  1  0.47947217  0.13725372  0.87186075  1.0
  Na  Na2  1  0.93397155  0.63077626  0.28804109  1.0
  Na  Na3  1  0.25675600  0.43688488  0.06741636  1.0
  Cl  Cl4  1  0.15825303  0.22799899  0.49751821  1.0
  Cl  Cl5  1  0.14070863  0.11301150  0.24316939  1.0
  Cl  Cl6  1  0.09253736  0.14470730  0.03165186  1.0
  Cl  Cl7  1  0.56284865  0.57040136  0.72666735  1.0
