# generated using pymatgen
data_NaCl
_symmetry_space_group_name_H-M   'P 1'
_cell_length_a   7.36693791
_cell_length_b   12.92049554
_cell_length_c   3.77114621
_cell_angle_alpha   90.00000000
_cell_angle_beta   90.00000000
_cell_angle_gamma   90.00000000
_symmetry_Int_Tables_number   1
_chemical_formula_structural   NaCl
_chemical_formula_sum   'Na4 Cl4'
_cell_volume   358.95462272
_cell_formula_units_Z   4
loop_
 _symmetry_equiv_pos_site_id
 _symmetry_equiv_pos_as_xyz
  1  'x, y, z'
loop_
 _atom_site_type_symbol
 _atom_site_label
 _atom_site_symmetry_multiplicity
 _atom_site_fract_x
 _atom_site_fract_y
 _atom_site_fract_z
 _atom_site_occupancy
  Na  Na0  1  0.09611662  0.69794241  0.76728442  1.0
  Na  Na1  1  0.35539229  0.01829967  0.25898066  1.0
  Na  Na2  1  0.53335507  0.80811040  0.18458081  1.0
  Na  Na3  1  0.20852999  0.35465745  0.11123734  1.0
  Cl  Cl4  1  0.63976097  0.23399026  0.47763431  1.0
  Cl  Cl5  1  0.30447703  0.42713582  0.18885778  1.0
  Cl  Cl6  1  0.15957680  0.81105123  0.49955505  1.0
  Cl  Cl7  1  0.08507562  0.70523495  0.46415012  1.0
