# generated using pymatgen
data_NaCl
_symmetry_space_group_name_H-M   'P 1'
_cell_length_a   6.40719773
_cell_length_b   6.92044250
_cell_length_c   5.42862678
_cell_angle_alpha   90.00000000
_cell_angle_beta   90.00000000
_cell_angle_gamma   90.00000000
_symmetry_Int_Tables_number   1
_chemical_formula_structural   NaCl
_chemical_formula_sum   'Na4 Cl4'
_cell_volume   240.70880462
_cell_formula_units_Z   4
loop_
 _symmetry_equiv_pos_site_id
 _symmetry_equiv_pos_as_xyz
  1  'x, y, z'
loop_
 _atom_site_type_symbol
 _atom_site_label
 _atom_site_symmetry_multiplicity
 _atom_site_fract_x
 _atom_site_fract_y
 _atom_site_fract_z
 _atom_site_occupancy
  Na  Na0  1  0.38763579  0.84250243  0.66826571  1.0
  Na  Na1  1  0.16398814  0.10449046  0.29530347  1.0
  Na  Na2  1  0.69298846  0.97174951  0.00517293  1.0
  Na  Na3  1  0.50562277  0.00049159  0.40102116  1.0
  Cl  Cl4  1  0.30938284  0.00076660  0.78806922  1.0
  Cl  Cl5  1  0.44798171  0.46392015  0.16823223  1.0
  Cl  Cl6  1  0.26667449  0.92381793  0.51262837  1.0
  Cl  Cl7  1  0.83444901  0.82010262  0.14475541  1.0
