# generated using pymatgen
data_NaCl
_symmetry_space_group_name_H-M   'P 1'
_cell_length_a   5.39186673
_cell_length_b   12.34854739
_cell_length_c   5.41313804
_cell_angle_alpha   90.00000000
_cell_angle_beta   90.00000000
_cell_angle_gamma   90.00000000
_symmetry_Int_Tables_number   1
_chemical_formula_structural   NaCl
_chemical_formula_sum   'Na4 Cl4'
_cell_volume   360.41605124
_cell_formula_units_Z   4
loop_
 _symmetry_equiv_pos_site_id
 _symmetry_equiv_pos_as_xyz
  1  'x, y, z'
loop_
 _atom_site_type_symbol
 _atom_site_label
 _atom_site_symmetry_multiplicity
 _atom_site_fract_x
 _atom_site_fract_y
 _atom_site_fract_z
 _atom_site_occupancy
  Na  Na0  1  0.49123271  0.67488919  0.67825664  1.0
  Na  Na1  1  0.99987530  0.28415768  0.03887258  1.0
  Na  Na2  1  0.91584251  0.19556401  0.84368613  1.0
  Na  Na3  1  0.95402711  0.53337039  0.67749304  1.0
  Cl  Cl4  1  0.54919586  0.14895007  0.89852815  1.0
  Cl  Cl5  1  0.54720171  0.05464360  0.57251454  1.0
  Cl  Cl6  1  0.65034885  0.30036622  0.57958760  1.0
  Cl  Cl7  1  0.35740700  0.93978651  0.51224054  1.0
