# generated using pymatgen
data_NaCl
_symmetry_space_group_name_H-M   'P 1'
_cell_length_a   5.15936952
_cell_length_b   16.76990125
_cell_length_c   4.55200292
_cell_angle_alpha   90.00000000
_cell_angle_beta   40.91064808
_cell_angle_gamma   90.00000000
_symmetry_Int_Tables_number   1
_chemical_formula_structural   NaCl
_chemical_formula_sum   'Na4 Cl4'
_cell_volume   257.92428934
_cell_formula_units_Z   4
loop_
 _symmetry_equiv_pos_site_id
 _symmetry_equiv_pos_as_xyz
  1  'x, y, z'
loop_
 _atom_site_type_symbol
 _atom_site_label
 _atom_site_symmetry_multiplicity
 _atom_site_fract_x
 _atom_site_fract_y
 _atom_site_fract_z
 _atom_site_occupancy
  Na  Na0  1  0.18477712  0.97846211  0.75044753  1.0
  Na  Na1  1  0.54612241  0.43283850  0.27883930  1.0
  Na  Na2  1  0.46193793  0.05823597  0.30136053  1.0
  Na  Na3  1  0.46002492  0.75137229  0.81979242  1.0
  Cl  Cl4  1  0.47065676  0.25692054  0.74435331  1.0
  Cl  Cl5  1  0.11050098  0.30664584  0.14638565  1.0
  Cl  Cl6  1  0.05597486  0.36363140  0.03592044  1.0
  Cl  Cl7  1  0.09691809  0.19906278  0.03855522  1.0
