# generated using pymatgen
data_NaCl
_symmetry_space_group_name_H-M   'P 1'
_cell_length_a   7.22956351
_cell_length_b   7.22956351
_cell_length_c   7.25568951
_cell_angle_alpha   90.00000000
_cell_angle_beta   90.00000000
_cell_angle_gamma   90.00000000
_symmetry_Int_Tables_number   1
_chemical_formula_structural   NaCl
_chemical_formula_sum   'Na4 Cl4'
_cell_volume   379.23013823
_cell_formula_units_Z   4
loop_
 _symmetry_equiv_pos_site_id
 _symmetry_equiv_pos_as_xyz
  1  'x, y, z'
loop_
 _atom_site_type_symbol
 _atom_site_label
 _atom_site_symmetry_multiplicity
 _atom_site_fract_x
 _atom_site_fract_y
 _atom_site_fract_z
 _atom_site_occupancy
  Na  Na0  1  0.26034270  0.26034270  0.37500000  1.0
  Na  Na1  1  0.97069250  0.97069250  0.87500000  1.0
  Na  Na2  1  0.82713816  0.17286184  0.62500000  1.0
  Na  Na3  1  0.42035481  0.57964519  0.12500000  1.0
  Cl  Cl4  1  0.50087752  0.50087752  0.37500000  1.0
  Cl  Cl5  1  0.59946093  0.59946093  0.87500000  1.0
  Cl  Cl6  1  0.08404583  0.91595417  0.62500000  1.0
  Cl  Cl7  1  0.10370168  0.89629832  0.12500000  1.0
