# generated using pymatgen
data_NaCl
_symmetry_space_group_name_H-M   'P 1'
_cell_length_a   4.35808958
_cell_length_b   13.33807432
_cell_length_c   2.55779221
_cell_angle_alpha   90.00000000
_cell_angle_beta   90.00000000
_cell_angle_gamma   90.00000000
_symmetry_Int_Tables_number   1
_chemical_formula_structural   NaCl
_chemical_formula_sum   'Na4 Cl4'
_cell_volume   148.68068257
_cell_formula_units_Z   4
loop_
 _symmetry_equiv_pos_site_id
 _symmetry_equiv_pos_as_xyz
  1  'x, y, z'
loop_
 _atom_site_type_symbol
 _atom_site_label
 _atom_site_symmetry_multiplicity
 _atom_site_fract_x
 _atom_site_fract_y
 _atom_site_fract_z
 _atom_site_occupancy
  Na  Na0  1  0.00000000  0.78454355  0.66710881  1.0
  Na  Na1  1  0.00000000  0.29619431  0.47586817  1.0
  Na  Na2  1  0.50000000  0.71581472  0.03373627  1.0
  Na  Na3  1  0.50000000  0.41375602  0.19653071  1.0
  Cl  Cl4  1  0.24219548  0.00000000  0.76921417  1.0
  Cl  Cl5  1  0.81300999  0.00000000  0.79186651  1.0
  Cl  Cl6  1  0.23176511  0.50000000  0.89542998  1.0
  Cl  Cl7  1  0.44363439  0.50000000  0.89829493  1.0
