# generated using pymatgen
data_NaCl
_symmetry_space_group_name_H-M   'P 1'
_cell_length_a   7.63396432
_cell_length_b   15.91011922
_cell_length_c   8.13188687
_cell_angle_alpha   90.00000000
_cell_angle_beta   21.92395983
_cell_angle_gamma   90.00000000
_symmetry_Int_Tables_number   1
_chemical_formula_structural   NaCl
_chemical_formula_sum   'Na4 Cl4'
_cell_volume   368.77459657
_cell_formula_units_Z   4
loop_
 _symmetry_equiv_pos_site_id
 _symmetry_equiv_pos_as_xyz
  1  'x, y, z'
loop_
 _atom_site_type_symbol
 _atom_site_label
 _atom_site_symmetry_multiplicity
 _atom_site_fract_x
 _atom_site_fract_y
 _atom_site_fract_z
 _atom_site_occupancy
  Na  Na0  1  0.46744820  0.57735248  0.72565451  1.0
  Na  Na1  1  0.42164771  0.49626268  0.26465922  1.0
  Na  Na2  1  0.96218191  0.82331839  0.01802024  1.0
  Na  Na3  1  0.03379594  0.35226953  0.62339318  1.0
  Cl  Cl4  1  0.63686577  0.16961565  0.89772924  1.0
  Cl  Cl5  1  0.06544783  0.97942122  0.25644975  1.0
  Cl  Cl6  1  0.49946250  0.05729365  0.10938313  1.0
  Cl  Cl7  1  0.59363086  0.84425696  0.70669292  1.0
