# generated using pymatgen
data_NaCl
_symmetry_space_group_name_H-M   'P 1'
_cell_length_a   7.83375050
_cell_length_b   9.69462554
_cell_length_c   4.08703827
_cell_angle_alpha   90.00000000
_cell_angle_beta   106.66743505
_cell_angle_gamma   90.00000000
_symmetry_Int_Tables_number   1
_chemical_formula_structural   NaCl
_chemical_formula_sum   'Na4 Cl4'
_cell_volume   297.35037435
_cell_formula_units_Z   4
loop_
 _symmetry_equiv_pos_site_id
 _symmetry_equiv_pos_as_xyz
  1  'x, y, z'
loop_
 _atom_site_type_symbol
 _atom_site_label
 _atom_site_symmetry_multiplicity
 _atom_site_fract_x
 _atom_site_fract_y
 _atom_site_fract_z
 _atom_site_occupancy
  Na  Na0  1  0.22344436  0.90934329  0.93694385  1.0
  Na  Na1  1  0.50192676  0.29814704  0.13947142  1.0
  Na  Na2  1  0.41956822  0.06980363  0.25102817  1.0
  Na  Na3  1  0.43398489  0.55696082  0.17319757  1.0
  Cl  Cl4  1  0.27774546  0.18748657  0.13699093  1.0
  Cl  Cl5  1  0.90548876  0.29629371  0.38354448  1.0
  Cl  Cl6  1  0.66146308  0.96897938  0.00008052  1.0
  Cl  Cl7  1  0.54462626  0.43749562  0.61989116  1.0
