# generated using pymatgen
data_NaCl
_symmetry_space_group_name_H-M   'P 1'
_cell_length_a   4.94966759
_cell_length_b   10.12830696
_cell_length_c   5.37504227
_cell_angle_alpha   90.00000000
_cell_angle_beta   73.86175877
_cell_angle_gamma   90.00000000
_symmetry_Int_Tables_number   1
_chemical_formula_structural   NaCl
_chemical_formula_sum   'Na4 Cl4'
_cell_volume   258.84189739
_cell_formula_units_Z   4
loop_
 _symmetry_equiv_pos_site_id
 _symmetry_equiv_pos_as_xyz
  1  'x, y, z'
loop_
 _atom_site_type_symbol
 _atom_site_label
 _atom_site_symmetry_multiplicity
 _atom_site_fract_x
 _atom_site_fract_y
 _atom_site_fract_z
 _atom_site_occupancy
  Na  Na0  1  0.00028446  0.50000000  0.36239352  1.0
  Na  Na1  1  0.44093791  0.50000000  0.82078417  1.0
  Na  Na2  1  0.61375001  0.08800986  0.20801304  1.0
  Na  Na3  1  0.64291373  0.72846612  0.76137501  1.0
  Cl  Cl4  1  0.61444849  0.00000000  0.91289533  1.0
  Cl  Cl5  1  0.15050044  0.00000000  0.32997771  1.0
  Cl  Cl6  1  0.45475226  0.24526607  0.04507635  1.0
  Cl  Cl7  1  0.15691240  0.16078250  0.63443469  1.0
