# generated using pymatgen
data_NaCl
_symmetry_space_group_name_H-M   'P 1'
_cell_length_a   5.98510660
_cell_length_b   16.55314049
_cell_length_c   4.76785436
_cell_angle_alpha   90.00000000
_cell_angle_beta   45.94690071
_cell_angle_gamma   90.00000000
_symmetry_Int_Tables_number   1
_chemical_formula_structural   NaCl
_chemical_formula_sum   'Na4 Cl4'
_cell_volume   339.48479322
_cell_formula_units_Z   4
loop_
 _symmetry_equiv_pos_site_id
 _symmetry_equiv_pos_as_xyz
  1  'x, y, z'
loop_
 _atom_site_type_symbol
 _atom_site_label
 _atom_site_symmetry_multiplicity
 _atom_site_fract_x
 _atom_site_fract_y
 _atom_site_fract_z
 _atom_site_occupancy
  Na  Na0  1  0.63370376  0.37455825  0.56162250  1.0
  Na  Na1  1  0.49094682  0.63806299  0.12608796  1.0
  Na  Na2  1  0.62503544  0.50106207  0.71668087  1.0
  Na  Na3  1  0.86132678  0.58903548  0.73882349  1.0
  Cl  Cl4  1  0.57694023  0.05142442  0.96915289  1.0
  Cl  Cl5  1  0.98297398  0.47783896  0.31477682  1.0
  Cl  Cl6  1  0.67943010  0.67141626  0.09020465  1.0
  Cl  Cl7  1  0.94060530  0.35199210  0.83859250  1.0
