# generated using pymatgen
data_NaCl
_symmetry_space_group_name_H-M   'P 1'
_cell_length_a   4.94223001
_cell_length_b   10.61531101
_cell_length_c   3.89740784
_cell_angle_alpha   90.00000000
_cell_angle_beta   90.00000000
_cell_angle_gamma   90.00000000
_symmetry_Int_Tables_number   1
_chemical_formula_structural   NaCl
_chemical_formula_sum   'Na4 Cl4'
_cell_volume   204.47091040
_cell_formula_units_Z   4
loop_
 _symmetry_equiv_pos_site_id
 _symmetry_equiv_pos_as_xyz
  1  'x, y, z'
loop_
 _atom_site_type_symbol
 _atom_site_label
 _atom_site_symmetry_multiplicity
 _atom_site_fract_x
 _atom_site_fract_y
 _atom_site_fract_z
 _atom_site_occupancy
  Na  Na0  1  0.25000000  0.86047868  0.78626737  1.0
  Na  Na1  1  0.75000000  0.32669931  0.70294105  1.0
  Na  Na2  1  0.25000000  0.68084573  0.01054790  1.0
  Na  Na3  1  0.75000000  0.43491692  0.21883115  1.0
  Cl  Cl4  1  0.25000000  0.20369662  0.62689622  1.0
  Cl  Cl5  1  0.75000000  0.11681179  0.28645044  1.0
  Cl  Cl6  1  0.25000000  0.59239643  0.83373044  1.0
  Cl  Cl7  1  0.75000000  0.52275367  0.89482019  1.0
