# generated using pymatgen
data_NaCl
_symmetry_space_group_name_H-M   'P 1'
_cell_length_a   7.80843295
_cell_length_b   6.13790925
_cell_length_c   7.81244394
_cell_angle_alpha   90.00000000
_cell_angle_beta   116.83453750
_cell_angle_gamma   90.00000000
_symmetry_Int_Tables_number   1
_chemical_formula_structural   NaCl
_chemical_formula_sum   'Na4 Cl4'
_cell_volume   334.10956296
_cell_formula_units_Z   4
loop_
 _symmetry_equiv_pos_site_id
 _symmetry_equiv_pos_as_xyz
  1  'x, y, z'
loop_
 _atom_site_type_symbol
 _atom_site_label
 _atom_site_symmetry_multiplicity
 _atom_site_fract_x
 _atom_site_fract_y
 _atom_site_fract_z
 _atom_site_occupancy
  Na  Na0  1  0.55232337  0.73827665  0.58938592  1.0
  Na  Na1  1  0.69255581  0.08878992  0.52905324  1.0
  Na  Na2  1  0.96850439  0.58134367  0.30008862  1.0
  Na  Na3  1  0.87993145  0.93945675  0.43354322  1.0
  Cl  Cl4  1  0.41750313  0.39866105  0.99866255  1.0
  Cl  Cl5  1  0.26574541  0.15858031  0.63279967  1.0
  Cl  Cl6  1  0.10504214  0.77558933  0.57137306  1.0
  Cl  Cl7  1  0.64780752  0.65699364  0.97364012  1.0
