# generated using pymatgen
data_NaCl
_symmetry_space_group_name_H-M   'P 1'
_cell_length_a   5.00337129
_cell_length_b   16.09106817
_cell_length_c   5.72436825
_cell_angle_alpha   90.00000000
_cell_angle_beta   53.85728358
_cell_angle_gamma   90.00000000
_symmetry_Int_Tables_number   1
_chemical_formula_structural   NaCl
_chemical_formula_sum   'Na4 Cl4'
_cell_volume   372.17294725
_cell_formula_units_Z   4
loop_
 _symmetry_equiv_pos_site_id
 _symmetry_equiv_pos_as_xyz
  1  'x, y, z'
loop_
 _atom_site_type_symbol
 _atom_site_label
 _atom_site_symmetry_multiplicity
 _atom_site_fract_x
 _atom_site_fract_y
 _atom_site_fract_z
 _atom_site_occupancy
  Na  Na0  1  0.34064451  0.77678963  0.70496222  1.0
  Na  Na1  1  0.47617026  0.01594803  0.14433572  1.0
  Na  Na2  1  0.00870071  0.68282430  0.44539076  1.0
  Na  Na3  1  0.98393329  0.36215539  0.30966822  1.0
  Cl  Cl4  1  0.31844704  0.17079119  0.54477169  1.0
  Cl  Cl5  1  0.22530128  0.26973595  0.35633039  1.0
  Cl  Cl6  1  0.08963290  0.75643932  0.11538072  1.0
  Cl  Cl7  1  0.72582232  0.56699218  0.93686762  1.0
