# generated using pymatgen
data_NaCl
_symmetry_space_group_name_H-M   'P 1'
_cell_length_a   6.88482188
_cell_length_b   6.42399805
_cell_length_c   7.58596671
_cell_angle_alpha   90.00000000
_cell_angle_beta   128.35744406
_cell_angle_gamma   90.00000000
_symmetry_Int_Tables_number   1
_chemical_formula_structural   NaCl
_chemical_formula_sum   'Na4 Cl4'
_cell_volume   263.09387200
_cell_formula_units_Z   4
loop_
 _symmetry_equiv_pos_site_id
 _symmetry_equiv_pos_as_xyz
  1  'x, y, z'
loop_
 _atom_site_type_symbol
 _atom_site_label
 _atom_site_symmetry_multiplicity
 _atom_site_fract_x
 _atom_site_fract_y
 _atom_site_fract_z
 _atom_site_occupancy
  Na  Na0  1  0.23324947  0.78705380  0.84254263  1.0
  Na  Na1  1  0.94630833  0.34367696  0.31145317  1.0
  Na  Na2  1  0.01827124  0.01680417  0.23151413  1.0
  Na  Na3  1  0.52645030  0.70416007  0.54946974  1.0
  Cl  Cl4  1  0.36049905  0.20834625  0.94650529  1.0
  Cl  Cl5  1  0.76711111  0.37378283  0.53181619  1.0
  Cl  Cl6  1  0.94356728  0.22842806  0.03687044  1.0
  Cl  Cl7  1  0.82337789  0.17997082  0.73524440  1.0
