# generated using pymatgen
data_NaCl
_symmetry_space_group_name_H-M   'P 1'
_cell_length_a   4.93465938
_cell_length_b   18.14046426
_cell_length_c   3.42934664
_cell_angle_alpha   90.00000000
_cell_angle_beta   90.00000000
_cell_angle_gamma   90.00000000
_symmetry_Int_Tables_number   1
_chemical_formula_structural   NaCl
_chemical_formula_sum   'Na4 Cl4'
_cell_volume   306.98486473
_cell_formula_units_Z   4
loop_
 _symmetry_equiv_pos_site_id
 _symmetry_equiv_pos_as_xyz
  1  'x, y, z'
loop_
 _atom_site_type_symbol
 _atom_site_label
 _atom_site_symmetry_multiplicity
 _atom_site_fract_x
 _atom_site_fract_y
 _atom_site_fract_z
 _atom_site_occupancy
  Na  Na0  1  0.25000000  0.81763152  0.67944739  1.0
  Na  Na1  1  0.75000000  0.07841774  0.73885918  1.0
  Na  Na2  1  0.25000000  0.50111062  0.71473225  1.0
  Na  Na3  1  0.75000000  0.47952437  0.72965386  1.0
  Cl  Cl4  1  0.25000000  0.15890165  0.96952927  1.0
  Cl  Cl5  1  0.75000000  0.75255184  0.63491635  1.0
  Cl  Cl6  1  0.25000000  0.75580263  0.50055871  1.0
  Cl  Cl7  1  0.75000000  0.75520091  0.96317125  1.0
