# generated using pymatgen
data_NaCl
_symmetry_space_group_name_H-M   'P 1'
_cell_length_a   4.12835566
_cell_length_b   10.63779038
_cell_length_c   3.44160138
_cell_angle_alpha   90.00000000
_cell_angle_beta   43.66669503
_cell_angle_gamma   90.00000000
_symmetry_Int_Tables_number   1
_chemical_formula_structural   NaCl
_chemical_formula_sum   'Na4 Cl4'
_cell_volume   104.35876040
_cell_formula_units_Z   4
loop_
 _symmetry_equiv_pos_site_id
 _symmetry_equiv_pos_as_xyz
  1  'x, y, z'
loop_
 _atom_site_type_symbol
 _atom_site_label
 _atom_site_symmetry_multiplicity
 _atom_site_fract_x
 _atom_site_fract_y
 _atom_site_fract_z
 _atom_site_occupancy
  Na  Na0  1  0.14238692  0.72429981  0.12795311  1.0
  Na  Na1  1  0.43039226  0.12437921  0.74583701  1.0
  Na  Na2  1  0.98800220  0.59148866  0.09189304  1.0
  Na  Na3  1  0.89080102  0.35944078  0.69888938  1.0
  Cl  Cl4  1  0.55474252  0.00000000  0.56482631  1.0
  Cl  Cl5  1  0.73299212  0.50000000  0.74799907  1.0
  Cl  Cl6  1  0.58549054  0.00000000  0.03324561  1.0
  Cl  Cl7  1  0.56482264  0.50000000  0.29027435  1.0
