# generated using pymatgen
data_NaCl
_symmetry_space_group_name_H-M   'P 1'
_cell_length_a   6.63688487
_cell_length_b   10.47770256
_cell_length_c   3.92205110
_cell_angle_alpha   90.00000000
_cell_angle_beta   90.00000000
_cell_angle_gamma   90.00000000
_symmetry_Int_Tables_number   1
_chemical_formula_structural   NaCl
_chemical_formula_sum   'Na4 Cl4'
_cell_volume   272.73670999
_cell_formula_units_Z   4
loop_
 _symmetry_equiv_pos_site_id
 _symmetry_equiv_pos_as_xyz
  1  'x, y, z'
loop_
 _atom_site_type_symbol
 _atom_site_label
 _atom_site_symmetry_multiplicity
 _atom_site_fract_x
 _atom_site_fract_y
 _atom_site_fract_z
 _atom_site_occupancy
  Na  Na0  1  0.18279694  0.68528981  0.84645487  1.0
  Na  Na1  1  0.45448327  0.01769736  0.42971885  1.0
  Na  Na2  1  0.89205475  0.88764409  0.24171535  1.0
  Na  Na3  1  0.54788886  0.11370274  0.93362063  1.0
  Cl  Cl4  1  0.18007630  0.85878545  0.94894619  1.0
  Cl  Cl5  1  0.78296967  0.22662346  0.01315762  1.0
  Cl  Cl6  1  0.81954876  0.73900303  0.66196669  1.0
  Cl  Cl7  1  0.03538469  0.77787180  0.64057599  1.0
