# generated using pymatgen
data_NaCl
_symmetry_space_group_name_H-M   'P 1'
_cell_length_a   6.88507764
_cell_length_b   6.88507764
_cell_length_c   6.68077127
_cell_angle_alpha   90.00000000
_cell_angle_beta   90.00000000
_cell_angle_gamma   90.00000000
_symmetry_Int_Tables_number   1
_chemical_formula_structural   NaCl
_chemical_formula_sum   'Na4 Cl4'
_cell_volume   316.69724616
_cell_formula_units_Z   4
loop_
 _symmetry_equiv_pos_site_id
 _symmetry_equiv_pos_as_xyz
  1  'x, y, z'
loop_
 _atom_site_type_symbol
 _atom_site_label
 _atom_site_symmetry_multiplicity
 _atom_site_fract_x
 _atom_site_fract_y
 _atom_site_fract_z
 _atom_site_occupancy
  Na  Na0  1  0.57053438  0.72748936  0.75366906  1.0
  Na  Na1  1  0.96546697  0.19841882  0.98325574  1.0
  Na  Na2  1  0.93299536  0.00226850  0.67934449  1.0
  Na  Na3  1  0.05390913  0.44971309  0.97310585  1.0
  Cl  Cl4  1  0.45576352  0.07661286  0.88737566  1.0
  Cl  Cl5  1  0.84184036  0.25903222  0.58230352  1.0
  Cl  Cl6  1  0.66789188  0.35503230  0.50009749  1.0
  Cl  Cl7  1  0.63932457  0.71538854  0.99264378  1.0
