# generated using pymatgen
data_NaCl
_symmetry_space_group_name_H-M   'P 1'
_cell_length_a   7.99072405
_cell_length_b   4.35618294
_cell_length_c   5.35159912
_cell_angle_alpha   90.00000000
_cell_angle_beta   90.00000000
_cell_angle_gamma   90.00000000
_symmetry_Int_Tables_number   1
_chemical_formula_structural   NaCl
_chemical_formula_sum   'Na4 Cl4'
_cell_volume   186.28411231
_cell_formula_units_Z   4
loop_
 _symmetry_equiv_pos_site_id
 _symmetry_equiv_pos_as_xyz
  1  'x, y, z'
loop_
 _atom_site_type_symbol
 _atom_site_label
 _atom_site_symmetry_multiplicity
 _atom_site_fract_x
 _atom_site_fract_y
 _atom_site_fract_z
 _atom_site_occupancy
  Na  Na0  1  0.08309004  0.25000000  0.49161029  1.0
  Na  Na1  1  0.02446467  0.25000000  0.18195195  1.0
  Na  Na2  1  0.46501476  0.75000000  0.86531169  1.0
  Na  Na3  1  0.96587113  0.75000000  0.51149148  1.0
  Cl  Cl4  1  0.54655093  0.25000000  0.99870883  1.0
  Cl  Cl5  1  0.22049974  0.25000000  0.92721067  1.0
  Cl  Cl6  1  0.15111813  0.75000000  0.99993235  1.0
  Cl  Cl7  1  0.58542557  0.75000000  0.53774356  1.0
