# generated using pymatgen
data_NaCl
_symmetry_space_group_name_H-M   'P 1'
_cell_length_a   5.40985152
_cell_length_b   6.82164342
_cell_length_c   6.29501270
_cell_angle_alpha   90.00000000
_cell_angle_beta   90.00000000
_cell_angle_gamma   90.00000000
_symmetry_Int_Tables_number   1
_chemical_formula_structural   NaCl
_chemical_formula_sum   'Na4 Cl4'
_cell_volume   232.31163985
_cell_formula_units_Z   4
loop_
 _symmetry_equiv_pos_site_id
 _symmetry_equiv_pos_as_xyz
  1  'x, y, z'
loop_
 _atom_site_type_symbol
 _atom_site_label
 _atom_site_symmetry_multiplicity
 _atom_site_fract_x
 _atom_site_fract_y
 _atom_site_fract_z
 _atom_site_occupancy
  Na  Na0  1  0.25000000  0.89707396  0.33898003  1.0
  Na  Na1  1  0.75000000  0.43779487  0.83607708  1.0
  Na  Na2  1  0.75000000  0.63375273  0.67550704  1.0
  Na  Na3  1  0.25000000  0.34208279  0.81568100  1.0
  Cl  Cl4  1  0.00000000  0.00000000  0.90683494  1.0
  Cl  Cl5  1  0.50000000  0.00000000  0.65349216  1.0
  Cl  Cl6  1  0.50000000  0.50000000  0.57268075  1.0
  Cl  Cl7  1  0.00000000  0.50000000  0.93948272  1.0
