# generated using pymatgen
data_NaCl
_symmetry_space_group_name_H-M   'P 1'
_cell_length_a   4.70876761
_cell_length_b   10.41902822
_cell_length_c   6.04453230
_cell_angle_alpha   90.00000000
_cell_angle_beta   71.30814347
_cell_angle_gamma   90.00000000
_symmetry_Int_Tables_number   1
_chemical_formula_structural   NaCl
_chemical_formula_sum   'Na4 Cl4'
_cell_volume   280.90823077
_cell_formula_units_Z   4
loop_
 _symmetry_equiv_pos_site_id
 _symmetry_equiv_pos_as_xyz
  1  'x, y, z'
loop_
 _atom_site_type_symbol
 _atom_site_label
 _atom_site_symmetry_multiplicity
 _atom_site_fract_x
 _atom_site_fract_y
 _atom_site_fract_z
 _atom_site_occupancy
  Na  Na0  1  0.62878534  0.94522381  0.76001663  1.0
  Na  Na1  1  0.40410482  0.78244312  0.20819213  1.0
  Na  Na2  1  0.87711715  0.50081955  0.14792992  1.0
  Na  Na3  1  0.93546392  0.09753550  0.56839186  1.0
  Cl  Cl4  1  0.00000000  0.11726563  0.00000000  1.0
  Cl  Cl5  1  0.50000000  0.09993926  0.00000000  1.0
  Cl  Cl6  1  0.00000000  0.22622554  0.50000000  1.0
  Cl  Cl7  1  0.50000000  0.16627615  0.50000000  1.0
