# generated using pymatgen
data_NaCl
_symmetry_space_group_name_H-M   'P 1'
_cell_length_a   8.01527152
_cell_length_b   15.83573150
_cell_length_c   2.97050264
_cell_angle_alpha   90.00000000
_cell_angle_beta   66.61074661
_cell_angle_gamma   90.00000000
_symmetry_Int_Tables_number   1
_chemical_formula_structural   NaCl
_chemical_formula_sum   'Na4 Cl4'
_cell_volume   346.05739486
_cell_formula_units_Z   4
loop_
 _symmetry_equiv_pos_site_id
 _symmetry_equiv_pos_as_xyz
  1  'x, y, z'
loop_
 _atom_site_type_symbol
 _atom_site_label
 _atom_site_symmetry_multiplicity
 _atom_site_fract_x
 _atom_site_fract_y
 _atom_site_fract_z
 _atom_site_occupancy
  Na  Na0  1  0.37130978  0.54276227  0.20121055  1.0
  Na  Na1  1  0.55508168  0.31203624  0.09359334  1.0
  Na  Na2  1  0.73561197  0.39892813  0.00857322  1.0
  Na  Na3  1  0.59196278  0.79272502  0.91319893  1.0
  Cl  Cl4  1  0.62497095  0.33962096  0.58069481  1.0
  Cl  Cl5  1  0.69801153  0.20865944  0.64587388  1.0
  Cl  Cl6  1  0.97968650  0.13524774  0.15554816  1.0
  Cl  Cl7  1  0.88242690  0.14052999  0.91193008  1.0
