# generated using pymatgen
data_NaCl
_symmetry_space_group_name_H-M   'P 1'
_cell_length_a   7.70645414
_cell_length_b   4.33798808
_cell_length_c   6.02092908
_cell_angle_alpha   90.00000000
_cell_angle_beta   90.00000000
_cell_angle_gamma   90.00000000
_symmetry_Int_Tables_number   1
_chemical_formula_structural   NaCl
_chemical_formula_sum   'Na4 Cl4'
_cell_volume   201.28270693
_cell_formula_units_Z   4
loop_
 _symmetry_equiv_pos_site_id
 _symmetry_equiv_pos_as_xyz
  1  'x, y, z'
loop_
 _atom_site_type_symbol
 _atom_site_label
 _atom_site_symmetry_multiplicity
 _atom_site_fract_x
 _atom_site_fract_y
 _atom_site_fract_z
 _atom_site_occupancy
  Na  Na0  1  0.60897358  0.85291288  0.50016938  1.0
  Na  Na1  1  0.84062820  0.85172301  0.10231538  1.0
  Na  Na2  1  0.97252610  0.86918214  0.28943320  1.0
  Na  Na3  1  0.98636059  0.23722500  0.86145600  1.0
  Cl  Cl4  1  0.57651658  0.21722571  0.92398077  1.0
  Cl  Cl5  1  0.38156643  0.42318193  0.30497065  1.0
  Cl  Cl6  1  0.37792275  0.81153133  0.41124523  1.0
  Cl  Cl7  1  0.98920509  0.81730723  0.83571243  1.0
