# generated using pymatgen
data_NaCl
_symmetry_space_group_name_H-M   'P 1'
_cell_length_a   6.76031450
_cell_length_b   8.40616217
_cell_length_c   8.32459141
_cell_angle_alpha   90.00000000
_cell_angle_beta   35.31081188
_cell_angle_gamma   90.00000000
_symmetry_Int_Tables_number   1
_chemical_formula_structural   NaCl
_chemical_formula_sum   'Na4 Cl4'
_cell_volume   273.44133240
_cell_formula_units_Z   4
loop_
 _symmetry_equiv_pos_site_id
 _symmetry_equiv_pos_as_xyz
  1  'x, y, z'
loop_
 _atom_site_type_symbol
 _atom_site_label
 _atom_site_symmetry_multiplicity
 _atom_site_fract_x
 _atom_site_fract_y
 _atom_site_fract_z
 _atom_site_occupancy
  Na  Na0  1  0.54140940  0.73535719  0.66978385  1.0
  Na  Na1  1  0.49423037  0.19244317  0.80988379  1.0
  Na  Na2  1  0.01482024  0.52480597  0.60871133  1.0
  Na  Na3  1  0.90084142  0.39838703  0.47869284  1.0
  Cl  Cl4  1  0.45274842  0.09279932  0.92995589  1.0
  Cl  Cl5  1  0.46263172  0.13776114  0.66767220  1.0
  Cl  Cl6  1  0.37007448  0.74862997  0.08510679  1.0
  Cl  Cl7  1  0.62177275  0.99754442  0.34595686  1.0
