# generated using pymatgen
data_NaCl
_symmetry_space_group_name_H-M   'P 1'
_cell_length_a   5.69996019
_cell_length_b   5.61718347
_cell_length_c   10.22657252
_cell_angle_alpha   90.00000000
_cell_angle_beta   94.67803748
_cell_angle_gamma   90.00000000
_symmetry_Int_Tables_number   1
_chemical_formula_structural   NaCl
_chemical_formula_sum   'Na4 Cl4'
_cell_volume   326.34079208
_cell_formula_units_Z   4
loop_
 _symmetry_equiv_pos_site_id
 _symmetry_equiv_pos_as_xyz
  1  'x, y, z'
loop_
 _atom_site_type_symbol
 _atom_site_label
 _atom_site_symmetry_multiplicity
 _atom_site_fract_x
 _atom_site_fract_y
 _atom_site_fract_z
 _atom_site_occupancy
  Na  Na0  1  0.07038534  0.88955407  0.73763480  1.0
  Na  Na1  1  0.69492307  0.02186694  0.90996888  1.0
  Na  Na2  1  0.76787886  0.59553087  0.07874076  1.0
  Na  Na3  1  0.32380345  0.23568062  0.45294546  1.0
  Cl  Cl4  1  0.40518650  0.43882847  0.95968205  1.0
  Cl  Cl5  1  0.10074538  0.12064169  0.65018634  1.0
  Cl  Cl6  1  0.18165939  0.85884333  0.91026212  1.0
  Cl  Cl7  1  0.78976492  0.71076923  0.57467069  1.0
