# generated using pymatgen
data_NaCl
_symmetry_space_group_name_H-M   'P 1'
_cell_length_a   2.02705383
_cell_length_b   8.76914947
_cell_length_c   5.83189158
_cell_angle_alpha   90.00000000
_cell_angle_beta   90.00000000
_cell_angle_gamma   90.00000000
_symmetry_Int_Tables_number   1
_chemical_formula_structural   NaCl
_chemical_formula_sum   'Na4 Cl4'
_cell_volume   103.66501050
_cell_formula_units_Z   4
loop_
 _symmetry_equiv_pos_site_id
 _symmetry_equiv_pos_as_xyz
  1  'x, y, z'
loop_
 _atom_site_type_symbol
 _atom_site_label
 _atom_site_symmetry_multiplicity
 _atom_site_fract_x
 _atom_site_fract_y
 _atom_site_fract_z
 _atom_site_occupancy
  Na  Na0  1  0.33581029  0.76761675  0.41771208  1.0
  Na  Na1  1  0.99992884  0.08733061  0.26086526  1.0
  Na  Na2  1  0.08537270  0.41207378  0.15587867  1.0
  Na  Na3  1  0.50181907  0.94790488  0.10776405  1.0
  Cl  Cl4  1  0.20587447  0.18828518  0.66863235  1.0
  Cl  Cl5  1  0.94888173  0.15357917  0.09934586  1.0
  Cl  Cl6  1  0.49918957  0.33491841  0.00028814  1.0
  Cl  Cl7  1  0.98309750  0.07939162  0.59284092  1.0
