# generated using pymatgen
data_NaCl
_symmetry_space_group_name_H-M   'P 1'
_cell_length_a   6.27274549
_cell_length_b   12.71464462
_cell_length_c   4.47930988
_cell_angle_alpha   90.00000000
_cell_angle_beta   90.00000000
_cell_angle_gamma   90.00000000
_symmetry_Int_Tables_number   1
_chemical_formula_structural   NaCl
_chemical_formula_sum   'Na4 Cl4'
_cell_volume   357.25062802
_cell_formula_units_Z   4
loop_
 _symmetry_equiv_pos_site_id
 _symmetry_equiv_pos_as_xyz
  1  'x, y, z'
loop_
 _atom_site_type_symbol
 _atom_site_label
 _atom_site_symmetry_multiplicity
 _atom_site_fract_x
 _atom_site_fract_y
 _atom_site_fract_z
 _atom_site_occupancy
  Na  Na0  1  0.22790280  0.90499289  0.42340358  1.0
  Na  Na1  1  0.82093417  0.04794189  0.21729406  1.0
  Na  Na2  1  0.97616607  0.89664058  0.89806073  1.0
  Na  Na3  1  0.40284758  0.21324253  0.98297234  1.0
  Cl  Cl4  1  0.27021359  0.20064244  0.75668280  1.0
  Cl  Cl5  1  0.20638611  0.39068462  0.15881815  1.0
  Cl  Cl6  1  0.54581603  0.28724377  0.60740495  1.0
  Cl  Cl7  1  0.98457946  0.78795452  0.48391725  1.0
