# generated using pymatgen
data_NaCl
_symmetry_space_group_name_H-M   'P 1'
_cell_length_a   3.93855523
_cell_length_b   21.02779654
_cell_length_c   2.00924114
_cell_angle_alpha   90.00000000
_cell_angle_beta   90.00000000
_cell_angle_gamma   90.00000000
_symmetry_Int_Tables_number   1
_chemical_formula_structural   NaCl
_chemical_formula_sum   'Na4 Cl4'
_cell_volume   166.40361933
_cell_formula_units_Z   4
loop_
 _symmetry_equiv_pos_site_id
 _symmetry_equiv_pos_as_xyz
  1  'x, y, z'
loop_
 _atom_site_type_symbol
 _atom_site_label
 _atom_site_symmetry_multiplicity
 _atom_site_fract_x
 _atom_site_fract_y
 _atom_site_fract_z
 _atom_site_occupancy
  Na  Na0  1  0.21503533  0.80472512  0.64074570  1.0
  Na  Na1  1  0.34750120  0.40780919  0.72295823  1.0
  Na  Na2  1  0.92088637  0.16280558  0.77040242  1.0
  Na  Na3  1  0.94886710  0.62949865  0.68941990  1.0
  Cl  Cl4  1  0.00000000  0.00000000  0.96697884  1.0
  Cl  Cl5  1  0.50000000  0.50000000  0.16557815  1.0
  Cl  Cl6  1  0.00000000  0.50000000  0.01774655  1.0
  Cl  Cl7  1  0.50000000  0.00000000  0.98434565  1.0
