# generated using pymatgen
data_NaCl
_symmetry_space_group_name_H-M   'P 1'
_cell_length_a   4.22143601
_cell_length_b   6.26586245
_cell_length_c   7.90089124
_cell_angle_alpha   90.00000000
_cell_angle_beta   90.00000000
_cell_angle_gamma   90.00000000
_symmetry_Int_Tables_number   1
_chemical_formula_structural   NaCl
_chemical_formula_sum   'Na4 Cl4'
_cell_volume   208.98597944
_cell_formula_units_Z   4
loop_
 _symmetry_equiv_pos_site_id
 _symmetry_equiv_pos_as_xyz
  1  'x, y, z'
loop_
 _atom_site_type_symbol
 _atom_site_label
 _atom_site_symmetry_multiplicity
 _atom_site_fract_x
 _atom_site_fract_y
 _atom_site_fract_z
 _atom_site_occupancy
  Na  Na0  1  0.47301318  0.69032731  0.33865537  1.0
  Na  Na1  1  0.40762197  0.49948968  0.47383774  1.0
  Na  Na2  1  0.95087470  0.92688689  0.12303114  1.0
  Na  Na3  1  0.55744262  0.04742787  0.46928986  1.0
  Cl  Cl4  1  0.00000000  0.50000000  0.78760618  1.0
  Cl  Cl5  1  0.50000000  0.50000000  0.61051581  1.0
  Cl  Cl6  1  0.25000000  0.56859142  0.05014000  1.0
  Cl  Cl7  1  0.75000000  0.24515202  0.23413044  1.0
