# generated using pymatgen
data_NaCl
_symmetry_space_group_name_H-M   'P 1'
_cell_length_a   7.05841563
_cell_length_b   12.67471783
_cell_length_c   4.00123168
_cell_angle_alpha   90.00000000
_cell_angle_beta   90.00000000
_cell_angle_gamma   90.00000000
_symmetry_Int_Tables_number   1
_chemical_formula_structural   NaCl
_chemical_formula_sum   'Na4 Cl4'
_cell_volume   357.96389606
_cell_formula_units_Z   4
loop_
 _symmetry_equiv_pos_site_id
 _symmetry_equiv_pos_as_xyz
  1  'x, y, z'
loop_
 _atom_site_type_symbol
 _atom_site_label
 _atom_site_symmetry_multiplicity
 _atom_site_fract_x
 _atom_site_fract_y
 _atom_site_fract_z
 _atom_site_occupancy
  Na  Na0  1  0.52131690  0.76115744  0.73295978  1.0
  Na  Na1  1  0.13795527  0.13367518  0.32563447  1.0
  Na  Na2  1  0.89982549  0.87420856  0.92984783  1.0
  Na  Na3  1  0.00126135  0.07140101  0.90515866  1.0
  Cl  Cl4  1  0.13137267  0.76862345  0.55270950  1.0
  Cl  Cl5  1  0.32141920  0.06567534  0.71054379  1.0
  Cl  Cl6  1  0.15738430  0.53402875  0.53568499  1.0
  Cl  Cl7  1  0.52122767  0.57856293  0.08639711  1.0
