# generated using pymatgen
data_NaCl
_symmetry_space_group_name_H-M   'P 1'
_cell_length_a   5.37614398
_cell_length_b   9.11566166
_cell_length_c   5.98370265
_cell_angle_alpha   90.00000000
_cell_angle_beta   90.00000000
_cell_angle_gamma   90.00000000
_symmetry_Int_Tables_number   1
_chemical_formula_structural   NaCl
_chemical_formula_sum   'Na4 Cl4'
_cell_volume   293.24397133
_cell_formula_units_Z   4
loop_
 _symmetry_equiv_pos_site_id
 _symmetry_equiv_pos_as_xyz
  1  'x, y, z'
loop_
 _atom_site_type_symbol
 _atom_site_label
 _atom_site_symmetry_multiplicity
 _atom_site_fract_x
 _atom_site_fract_y
 _atom_site_fract_z
 _atom_site_occupancy
  Na  Na0  1  0.47144630  0.96855011  0.99689155  1.0
  Na  Na1  1  0.36444161  0.91829173  0.25003720  1.0
  Na  Na2  1  0.74754714  0.21516204  0.29058544  1.0
  Na  Na3  1  0.12871412  0.71653534  0.95906305  1.0
  Cl  Cl4  1  0.36573771  0.14549280  0.92268444  1.0
  Cl  Cl5  1  0.27103881  0.28809731  0.15343581  1.0
  Cl  Cl6  1  0.83374514  0.77171020  0.29834840  1.0
  Cl  Cl7  1  0.15374646  0.33786055  0.80099321  1.0
