# generated using pymatgen
data_NaCl
_symmetry_space_group_name_H-M   'P 1'
_cell_length_a   2.76616888
_cell_length_b   7.77876542
_cell_length_c   7.61837521
_cell_angle_alpha   90.00000000
_cell_angle_beta   60.67997907
_cell_angle_gamma   90.00000000
_symmetry_Int_Tables_number   1
_chemical_formula_structural   NaCl
_chemical_formula_sum   'Na4 Cl4'
_cell_volume   142.92806431
_cell_formula_units_Z   4
loop_
 _symmetry_equiv_pos_site_id
 _symmetry_equiv_pos_as_xyz
  1  'x, y, z'
loop_
 _atom_site_type_symbol
 _atom_site_label
 _atom_site_symmetry_multiplicity
 _atom_site_fract_x
 _atom_site_fract_y
 _atom_site_fract_z
 _atom_site_occupancy
  Na  Na0  1  0.16767367  0.79894077  0.61453494  1.0
  Na  Na1  1  0.72507964  0.28443287  0.97905413  1.0
  Na  Na2  1  0.66196152  0.01713808  0.33526814  1.0
  Na  Na3  1  0.46846565  0.59776276  0.69759635  1.0
  Cl  Cl4  1  0.62557500  0.00000000  0.95415690  1.0
  Cl  Cl5  1  0.02851084  0.00000000  0.76237054  1.0
  Cl  Cl6  1  0.72912095  0.50000000  0.09200768  1.0
  Cl  Cl7  1  0.25821881  0.50000000  0.20888953  1.0
