# generated using pymatgen
data_NaCl
_symmetry_space_group_name_H-M   'P 1'
_cell_length_a   3.19282100
_cell_length_b   13.76309692
_cell_length_c   7.87620232
_cell_angle_alpha   90.00000000
_cell_angle_beta   90.00000000
_cell_angle_gamma   90.00000000
_symmetry_Int_Tables_number   1
_chemical_formula_structural   NaCl
_chemical_formula_sum   'Na4 Cl4'
_cell_volume   346.10478453
_cell_formula_units_Z   4
loop_
 _symmetry_equiv_pos_site_id
 _symmetry_equiv_pos_as_xyz
  1  'x, y, z'
loop_
 _atom_site_type_symbol
 _atom_site_label
 _atom_site_symmetry_multiplicity
 _atom_site_fract_x
 _atom_site_fract_y
 _atom_site_fract_z
 _atom_site_occupancy
  Na  Na0  1  0.11568898  0.52902247  0.57713589  1.0
  Na  Na1  1  0.35661288  0.62512915  0.73766855  1.0
  Na  Na2  1  0.13017245  0.53634909  0.93379198  1.0
  Na  Na3  1  0.88000124  0.26821116  0.83014771  1.0
  Cl  Cl4  1  0.00000000  0.00000000  0.61508108  1.0
  Cl  Cl5  1  0.50000000  0.50000000  0.33568058  1.0
  Cl  Cl6  1  0.00000000  0.50000000  0.05975097  1.0
  Cl  Cl7  1  0.50000000  0.00000000  0.53644439  1.0
