# generated using pymatgen
data_NaCl
_symmetry_space_group_name_H-M   'P 1'
_cell_length_a   6.13388696
_cell_length_b   3.38652467
_cell_length_c   11.05766048
_cell_angle_alpha   90.00000000
_cell_angle_beta   90.00000000
_cell_angle_gamma   90.00000000
_symmetry_Int_Tables_number   1
_chemical_formula_structural   NaCl
_chemical_formula_sum   'Na4 Cl4'
_cell_volume   229.69591040
_cell_formula_units_Z   4
loop_
 _symmetry_equiv_pos_site_id
 _symmetry_equiv_pos_as_xyz
  1  'x, y, z'
loop_
 _atom_site_type_symbol
 _atom_site_label
 _atom_site_symmetry_multiplicity
 _atom_site_fract_x
 _atom_site_fract_y
 _atom_site_fract_z
 _atom_site_occupancy
  Na  Na0  1  0.36358337  0.23451967  0.70195600  1.0
  Na  Na1  1  0.56267751  0.07391264  0.37043423  1.0
  Na  Na2  1  0.75309827  0.49939890  0.02333262  1.0
  Na  Na3  1  0.95227074  0.61685411  0.85943970  1.0
  Cl  Cl4  1  0.58825829  0.06201287  0.88521223  1.0
  Cl  Cl5  1  0.86945976  0.38862375  0.19423690  1.0
  Cl  Cl6  1  0.58138560  0.21001461  0.03406249  1.0
  Cl  Cl7  1  0.32323217  0.39785225  0.91788186  1.0
