# generated using pymatgen
data_NaCl
_symmetry_space_group_name_H-M   'P 1'
_cell_length_a   2.78597471
_cell_length_b   8.57184356
_cell_length_c   3.84382469
_cell_angle_alpha   90.00000000
_cell_angle_beta   90.00000000
_cell_angle_gamma   90.00000000
_symmetry_Int_Tables_number   1
_chemical_formula_structural   NaCl
_chemical_formula_sum   'Na4 Cl4'
_cell_volume   91.79414439
_cell_formula_units_Z   4
loop_
 _symmetry_equiv_pos_site_id
 _symmetry_equiv_pos_as_xyz
  1  'x, y, z'
loop_
 _atom_site_type_symbol
 _atom_site_label
 _atom_site_symmetry_multiplicity
 _atom_site_fract_x
 _atom_site_fract_y
 _atom_site_fract_z
 _atom_site_occupancy
  Na  Na0  1  0.00000000  0.60034777  0.86271743  1.0
  Na  Na1  1  0.00000000  0.03963299  0.80163684  1.0
  Na  Na2  1  0.00000000  0.80983841  0.68558069  1.0
  Na  Na3  1  0.00000000  0.46635011  0.20671342  1.0
  Cl  Cl4  1  0.50000000  0.30849985  0.99943270  1.0
  Cl  Cl5  1  0.50000000  0.21224267  0.59782140  1.0
  Cl  Cl6  1  0.50000000  0.64041396  0.59205223  1.0
  Cl  Cl7  1  0.50000000  0.67587421  0.95329397  1.0
