# generated using pymatgen
data_NaCl
_symmetry_space_group_name_H-M   'P 1'
_cell_length_a   6.52322995
_cell_length_b   10.87285224
_cell_length_c   5.59280750
_cell_angle_alpha   90.00000000
_cell_angle_beta   90.00000000
_cell_angle_gamma   90.00000000
_symmetry_Int_Tables_number   1
_chemical_formula_structural   NaCl
_chemical_formula_sum   'Na4 Cl4'
_cell_volume   396.67611001
_cell_formula_units_Z   4
loop_
 _symmetry_equiv_pos_site_id
 _symmetry_equiv_pos_as_xyz
  1  'x, y, z'
loop_
 _atom_site_type_symbol
 _atom_site_label
 _atom_site_symmetry_multiplicity
 _atom_site_fract_x
 _atom_site_fract_y
 _atom_site_fract_z
 _atom_site_occupancy
  Na  Na0  1  0.24115371  0.75808574  0.71504696  1.0
  Na  Na1  1  0.92477712  0.14628776  0.48667293  1.0
  Na  Na2  1  0.75643434  0.26223504  0.31219437  1.0
  Na  Na3  1  0.32192056  0.85809406  0.50025020  1.0
  Cl  Cl4  1  0.00000000  0.01965425  0.25000000  1.0
  Cl  Cl5  1  0.00000000  0.08619212  0.75000000  1.0
  Cl  Cl6  1  0.50000000  0.78648421  0.25000000  1.0
  Cl  Cl7  1  0.50000000  0.59676205  0.75000000  1.0
