# generated using pymatgen
data_NaCl
_symmetry_space_group_name_H-M   'P 1'
_cell_length_a   4.66978849
_cell_length_b   8.33041794
_cell_length_c   5.50480471
_cell_angle_alpha   90.00000000
_cell_angle_beta   100.39936255
_cell_angle_gamma   90.00000000
_symmetry_Int_Tables_number   1
_chemical_formula_structural   NaCl
_chemical_formula_sum   'Na4 Cl4'
_cell_volume   210.62636245
_cell_formula_units_Z   4
loop_
 _symmetry_equiv_pos_site_id
 _symmetry_equiv_pos_as_xyz
  1  'x, y, z'
loop_
 _atom_site_type_symbol
 _atom_site_label
 _atom_site_symmetry_multiplicity
 _atom_site_fract_x
 _atom_site_fract_y
 _atom_site_fract_z
 _atom_site_occupancy
  Na  Na0  1  0.29659515  0.72663390  0.71549057  1.0
  Na  Na1  1  0.67374957  0.44934063  0.31887289  1.0
  Na  Na2  1  0.42981720  0.88615993  0.30966423  1.0
  Na  Na3  1  0.38871908  0.75882992  0.47420184  1.0
  Cl  Cl4  1  0.30992642  0.17529169  0.59254612  1.0
  Cl  Cl5  1  0.91274980  0.56347066  0.17543258  1.0
  Cl  Cl6  1  0.99904606  0.02921915  0.03978386  1.0
  Cl  Cl7  1  0.78484035  0.45814722  0.71824319  1.0
