# generated using pymatgen
data_NaCl
_symmetry_space_group_name_H-M   'P 1'
_cell_length_a   6.71341785
_cell_length_b   3.14432936
_cell_length_c   7.84017525
_cell_angle_alpha   90.00000000
_cell_angle_beta   90.00000000
_cell_angle_gamma   90.00000000
_symmetry_Int_Tables_number   1
_chemical_formula_structural   NaCl
_chemical_formula_sum   'Na4 Cl4'
_cell_volume   165.49980270
_cell_formula_units_Z   4
loop_
 _symmetry_equiv_pos_site_id
 _symmetry_equiv_pos_as_xyz
  1  'x, y, z'
loop_
 _atom_site_type_symbol
 _atom_site_label
 _atom_site_symmetry_multiplicity
 _atom_site_fract_x
 _atom_site_fract_y
 _atom_site_fract_z
 _atom_site_occupancy
  Na  Na0  1  0.01366868  0.76262481  0.35571708  1.0
  Na  Na1  1  0.28828193  0.04850622  0.75971746  1.0
  Na  Na2  1  0.65779092  0.13906294  0.52214674  1.0
  Na  Na3  1  0.81821727  0.75529554  0.60951675  1.0
  Cl  Cl4  1  0.00000000  0.00000000  0.93669353  1.0
  Cl  Cl5  1  0.50000000  0.50000000  0.27556591  1.0
  Cl  Cl6  1  0.00000000  0.50000000  0.03572278  1.0
  Cl  Cl7  1  0.50000000  0.00000000  0.06401289  1.0
