# generated using pymatgen
data_NaCl
_symmetry_space_group_name_H-M   'P 1'
_cell_length_a   8.84914848
_cell_length_b   10.85379743
_cell_length_c   3.32510448
_cell_angle_alpha   90.00000000
_cell_angle_beta   90.00000000
_cell_angle_gamma   90.00000000
_symmetry_Int_Tables_number   1
_chemical_formula_structural   NaCl
_chemical_formula_sum   'Na4 Cl4'
_cell_volume   319.36586120
_cell_formula_units_Z   4
loop_
 _symmetry_equiv_pos_site_id
 _symmetry_equiv_pos_as_xyz
  1  'x, y, z'
loop_
 _atom_site_type_symbol
 _atom_site_label
 _atom_site_symmetry_multiplicity
 _atom_site_fract_x
 _atom_site_fract_y
 _atom_site_fract_z
 _atom_site_occupancy
  Na  Na0  1  0.31535163  0.91577964  0.55074040  1.0
  Na  Na1  1  0.62085481  0.20872110  0.68001737  1.0
  Na  Na2  1  0.91698407  0.39413094  0.20967463  1.0
  Na  Na3  1  0.05656708  0.55062446  0.73595308  1.0
  Cl  Cl4  1  0.00000000  0.00000000  0.61393672  1.0
  Cl  Cl5  1  0.50000000  0.50000000  0.59526285  1.0
  Cl  Cl6  1  0.00000000  0.50000000  0.01629817  1.0
  Cl  Cl7  1  0.50000000  0.00000000  0.05972085  1.0
