# generated using pymatgen
data_NaCl
_symmetry_space_group_name_H-M   'P 1'
_cell_length_a   7.86524022
_cell_length_b   10.80458281
_cell_length_c   4.73538589
_cell_angle_alpha   90.00000000
_cell_angle_beta   90.00000000
_cell_angle_gamma   90.00000000
_symmetry_Int_Tables_number   1
_chemical_formula_structural   NaCl
_chemical_formula_sum   'Na4 Cl4'
_cell_volume   402.41612016
_cell_formula_units_Z   4
loop_
 _symmetry_equiv_pos_site_id
 _symmetry_equiv_pos_as_xyz
  1  'x, y, z'
loop_
 _atom_site_type_symbol
 _atom_site_label
 _atom_site_symmetry_multiplicity
 _atom_site_fract_x
 _atom_site_fract_y
 _atom_site_fract_z
 _atom_site_occupancy
  Na  Na0  1  0.00000000  0.00000000  0.61637211  1.0
  Na  Na1  1  0.50000000  0.00000000  0.82193876  1.0
  Na  Na2  1  0.00000000  0.00000000  0.08793765  1.0
  Na  Na3  1  0.50000000  0.00000000  0.36904479  1.0
  Cl  Cl4  1  0.52036411  0.10395571  0.96824670  1.0
  Cl  Cl5  1  0.84410421  0.30816608  0.80078961  1.0
  Cl  Cl6  1  0.81679164  0.72510170  0.05204678  1.0
  Cl  Cl7  1  0.31826783  0.87837835  0.58836591  1.0
