# generated using pymatgen
data_NaCl
_symmetry_space_group_name_H-M   'P 1'
_cell_length_a   8.34872075
_cell_length_b   11.86864394
_cell_length_c   5.46740192
_cell_angle_alpha   90.00000000
_cell_angle_beta   38.20565218
_cell_angle_gamma   90.00000000
_symmetry_Int_Tables_number   1
_chemical_formula_structural   NaCl
_chemical_formula_sum   'Na4 Cl4'
_cell_volume   335.06715010
_cell_formula_units_Z   4
loop_
 _symmetry_equiv_pos_site_id
 _symmetry_equiv_pos_as_xyz
  1  'x, y, z'
loop_
 _atom_site_type_symbol
 _atom_site_label
 _atom_site_symmetry_multiplicity
 _atom_site_fract_x
 _atom_site_fract_y
 _atom_site_fract_z
 _atom_site_occupancy
  Na  Na0  1  0.19985767  0.90546393  0.54385733  1.0
  Na  Na1  1  0.23266094  0.96635990  0.11868249  1.0
  Na  Na2  1  0.28754022  0.90076906  0.85237548  1.0
  Na  Na3  1  0.60275944  0.39654737  0.61039178  1.0
  Cl  Cl4  1  0.50000000  0.00000000  0.00000000  1.0
  Cl  Cl5  1  0.50000000  0.50000000  0.00000000  1.0
  Cl  Cl6  1  0.17128479  0.25000000  0.03171165  1.0
  Cl  Cl7  1  0.84325499  0.75000000  0.52436655  1.0
