# generated using pymatgen
data_NaCl
_symmetry_space_group_name_H-M   'P 1'
_cell_length_a   4.63688629
_cell_length_b   12.05499117
_cell_length_c   6.13518356
_cell_angle_alpha   90.00000000
_cell_angle_beta   90.00000000
_cell_angle_gamma   90.00000000
_symmetry_Int_Tables_number   1
_chemical_formula_structural   NaCl
_chemical_formula_sum   'Na4 Cl4'
_cell_volume   342.94217940
_cell_formula_units_Z   4
loop_
 _symmetry_equiv_pos_site_id
 _symmetry_equiv_pos_as_xyz
  1  'x, y, z'
loop_
 _atom_site_type_symbol
 _atom_site_label
 _atom_site_symmetry_multiplicity
 _atom_site_fract_x
 _atom_site_fract_y
 _atom_site_fract_z
 _atom_site_occupancy
  Na  Na0  1  0.55030082  0.73496402  0.82308009  1.0
  Na  Na1  1  0.26491794  0.09946253  0.27329479  1.0
  Na  Na2  1  0.02707249  0.72845512  0.95638240  1.0
  Na  Na3  1  0.55847336  0.00041926  0.28712918  1.0
  Cl  Cl4  1  0.00000000  0.08414057  0.96606965  1.0
  Cl  Cl5  1  0.00000000  0.40504395  0.12865057  1.0
  Cl  Cl6  1  0.50000000  0.27035882  0.08508003  1.0
  Cl  Cl7  1  0.50000000  0.53372148  0.88957349  1.0
