# generated using pymatgen
data_NaCl
_symmetry_space_group_name_H-M   'P 1'
_cell_length_a   5.29153940
_cell_length_b   5.29153940
_cell_length_c   10.53084697
_cell_angle_alpha   90.00000000
_cell_angle_beta   90.00000000
_cell_angle_gamma   90.00000000
_symmetry_Int_Tables_number   1
_chemical_formula_structural   NaCl
_chemical_formula_sum   'Na4 Cl4'
_cell_volume   294.86781399
_cell_formula_units_Z   4
loop_
 _symmetry_equiv_pos_site_id
 _symmetry_equiv_pos_as_xyz
  1  'x, y, z'
loop_
 _atom_site_type_symbol
 _atom_site_label
 _atom_site_symmetry_multiplicity
 _atom_site_fract_x
 _atom_site_fract_y
 _atom_site_fract_z
 _atom_site_occupancy
  Na  Na0  1  0.27587483  0.77711881  0.85121268  1.0
  Na  Na1  1  0.21097241  0.04876925  0.25967709  1.0
  Na  Na2  1  0.98063243  0.02076832  0.43142932  1.0
  Na  Na3  1  0.19184066  0.67498903  0.97205603  1.0
  Cl  Cl4  1  0.25789692  0.03759259  0.72291352  1.0
  Cl  Cl5  1  0.94707753  0.43275904  0.08637628  1.0
  Cl  Cl6  1  0.32993927  0.89375519  0.33427868  1.0
  Cl  Cl7  1  0.80594245  0.91239913  0.29601780  1.0
