# generated using pymatgen
data_NaCl
_symmetry_space_group_name_H-M   'P 1'
_cell_length_a   6.46253792
_cell_length_b   15.81234848
_cell_length_c   4.71044756
_cell_angle_alpha   90.00000000
_cell_angle_beta   44.41142971
_cell_angle_gamma   90.00000000
_symmetry_Int_Tables_number   1
_chemical_formula_structural   NaCl
_chemical_formula_sum   'Na4 Cl4'
_cell_volume   336.85207406
_cell_formula_units_Z   4
loop_
 _symmetry_equiv_pos_site_id
 _symmetry_equiv_pos_as_xyz
  1  'x, y, z'
loop_
 _atom_site_type_symbol
 _atom_site_label
 _atom_site_symmetry_multiplicity
 _atom_site_fract_x
 _atom_site_fract_y
 _atom_site_fract_z
 _atom_site_occupancy
  Na  Na0  1  0.20369775  0.80495517  0.65562894  1.0
  Na  Na1  1  0.91134629  0.89709428  0.75561624  1.0
  Na  Na2  1  0.61204231  0.89368658  0.91912496  1.0
  Na  Na3  1  0.48854251  0.36305690  0.85384559  1.0
  Cl  Cl4  1  0.00000000  0.14373166  0.25000000  1.0
  Cl  Cl5  1  0.00000000  0.29254675  0.75000000  1.0
  Cl  Cl6  1  0.50000000  0.00000000  0.00000000  1.0
  Cl  Cl7  1  0.50000000  0.00000000  0.50000000  1.0
