# generated using pymatgen
data_NaCl
_symmetry_space_group_name_H-M   'P 1'
_cell_length_a   3.39633854
_cell_length_b   17.35518780
_cell_length_c   18.64637531
_cell_angle_alpha   90.00000000
_cell_angle_beta   90.00000000
_cell_angle_gamma   90.00000000
_symmetry_Int_Tables_number   1
_chemical_formula_structural   NaCl
_chemical_formula_sum   'Na4 Cl4'
_cell_volume   1099.09368368
_cell_formula_units_Z   4
loop_
 _symmetry_equiv_pos_site_id
 _symmetry_equiv_pos_as_xyz
  1  'x, y, z'
loop_
 _atom_site_type_symbol
 _atom_site_label
 _atom_site_symmetry_multiplicity
 _atom_site_fract_x
 _atom_site_fract_y
 _atom_site_fract_z
 _atom_site_occupancy
  Na  Na0  1  0.00000000  0.76419358  0.45954510  1
  Na  Na1  1  0.50000000  -0.78055716  0.80267316  1
  Na  Na2  1  0.00000000  0.07253468  0.49376679  1
  Na  Na3  1  0.50000000  -0.12306855  0.70770414  1
  Cl  Cl4  1  0.00000000  0.91684024  0.87283836  1
  Cl  Cl5  1  0.50000000  -0.19621129  1.28447029  1
  Cl  Cl6  1  0.00000000  0.45410097  0.97026199  1
  Cl  Cl7  1  0.50000000  -0.88035610  0.80612001  1
