# generated using pymatgen
data_NaCl
_symmetry_space_group_name_H-M   'P 1'
_cell_length_a   5.55534698
_cell_length_b   14.84553807
_cell_length_c   4.69132145
_cell_angle_alpha   90.00000000
_cell_angle_beta   90.00000000
_cell_angle_gamma   90.00000000
_symmetry_Int_Tables_number   1
_chemical_formula_structural   NaCl
_chemical_formula_sum   'Na4 Cl4'
_cell_volume   386.90320252
_cell_formula_units_Z   4
loop_
 _symmetry_equiv_pos_site_id
 _symmetry_equiv_pos_as_xyz
  1  'x, y, z'
loop_
 _atom_site_type_symbol
 _atom_site_label
 _atom_site_symmetry_multiplicity
 _atom_site_fract_x
 _atom_site_fract_y
 _atom_site_fract_z
 _atom_site_occupancy
  Na  Na0  1  0.45579686  0.20510342  0.25000000  1.0
  Na  Na1  1  0.33177334  0.30488191  0.75000000  1.0
  Na  Na2  1  0.52368914  0.64554471  0.25000000  1.0
  Na  Na3  1  0.81292565  0.90188921  0.75000000  1.0
  Cl  Cl4  1  0.76630506  0.25000000  0.00000000  1.0
  Cl  Cl5  1  0.94822074  0.75000000  0.50000000  1.0
  Cl  Cl6  1  0.24737774  0.75000000  0.00000000  1.0
  Cl  Cl7  1  0.03975078  0.25000000  0.50000000  1.0
