# generated using pymatgen
data_NaCl
_symmetry_space_group_name_H-M   'P 1'
_cell_length_a   3.79238171
_cell_length_b   9.89069947
_cell_length_c   9.64808383
_cell_angle_alpha   90.00000000
_cell_angle_beta   35.19461269
_cell_angle_gamma   90.00000000
_symmetry_Int_Tables_number   1
_chemical_formula_structural   NaCl
_chemical_formula_sum   'Na4 Cl4'
_cell_volume   208.57898265
_cell_formula_units_Z   4
loop_
 _symmetry_equiv_pos_site_id
 _symmetry_equiv_pos_as_xyz
  1  'x, y, z'
loop_
 _atom_site_type_symbol
 _atom_site_label
 _atom_site_symmetry_multiplicity
 _atom_site_fract_x
 _atom_site_fract_y
 _atom_site_fract_z
 _atom_site_occupancy
  Na  Na0  1  0.47964308  0.16788365  0.16060070  1.0
  Na  Na1  1  0.53633181  0.67652394  0.74293211  1.0
  Na  Na2  1  0.14646540  0.59787406  0.34014382  1.0
  Na  Na3  1  0.92599796  0.00985648  0.48767048  1.0
  Cl  Cl4  1  0.00000000  0.08846492  0.00000000  1.0
  Cl  Cl5  1  0.50000000  0.91628465  0.00000000  1.0
  Cl  Cl6  1  0.00000000  0.14565732  0.50000000  1.0
  Cl  Cl7  1  0.50000000  0.70939185  0.50000000  1.0
