# generated using pymatgen
data_NaCl
_symmetry_space_group_name_H-M   'P 1'
_cell_length_a   5.60833023
_cell_length_b   5.60833023
_cell_length_c   5.31385950
_cell_angle_alpha   90.00000000
_cell_angle_beta   90.00000000
_cell_angle_gamma   90.00000000
_symmetry_Int_Tables_number   1
_chemical_formula_structural   NaCl
_chemical_formula_sum   'Na4 Cl4'
_cell_volume   167.13877819
_cell_formula_units_Z   4
loop_
 _symmetry_equiv_pos_site_id
 _symmetry_equiv_pos_as_xyz
  1  'x, y, z'
loop_
 _atom_site_type_symbol
 _atom_site_label
 _atom_site_symmetry_multiplicity
 _atom_site_fract_x
 _atom_site_fract_y
 _atom_site_fract_z
 _atom_site_occupancy
  Na  Na0  1  0.43185348  0.43185348  0.12962462  1.0
  Na  Na1  1  0.14129092  0.14129092  0.67849597  1.0
  Na  Na2  1  0.43160783  0.56839217  0.75786619  1.0
  Na  Na3  1  0.84644304  0.15355696  0.84165804  1.0
  Cl  Cl4  1  0.76146367  0.76146367  0.92514214  1.0
  Cl  Cl5  1  0.79034641  0.79034641  0.54537751  1.0
  Cl  Cl6  1  0.92981367  0.07018633  0.61545061  1.0
  Cl  Cl7  1  0.88543934  0.11456066  0.31565529  1.0
