# generated using pymatgen
data_NaCl
_symmetry_space_group_name_H-M   'P 1'
_cell_length_a   4.35273904
_cell_length_b   11.65760612
_cell_length_c   7.67396332
_cell_angle_alpha   90.00000000
_cell_angle_beta   90.00000000
_cell_angle_gamma   90.00000000
_symmetry_Int_Tables_number   1
_chemical_formula_structural   NaCl
_chemical_formula_sum   'Na4 Cl4'
_cell_volume   389.39621631
_cell_formula_units_Z   4
loop_
 _symmetry_equiv_pos_site_id
 _symmetry_equiv_pos_as_xyz
  1  'x, y, z'
loop_
 _atom_site_type_symbol
 _atom_site_label
 _atom_site_symmetry_multiplicity
 _atom_site_fract_x
 _atom_site_fract_y
 _atom_site_fract_z
 _atom_site_occupancy
  Na  Na0  1  0.25000000  0.33928516  0.14507330  1.0
  Na  Na1  1  0.75000000  0.28386617  0.79477453  1.0
  Na  Na2  1  0.25000000  0.16653057  0.27215791  1.0
  Na  Na3  1  0.75000000  0.37306599  0.15824122  1.0
  Cl  Cl4  1  0.92791787  0.15541477  0.87867568  1.0
  Cl  Cl5  1  0.80890849  0.14136450  0.48655174  1.0
  Cl  Cl6  1  0.29261540  0.86030140  0.59207864  1.0
  Cl  Cl7  1  0.48417742  0.41056528  0.76492424  1.0
