# generated using pymatgen
data_NaCl
_symmetry_space_group_name_H-M   'P 1'
_cell_length_a   6.24225575
_cell_length_b   6.24225575
_cell_length_c   6.24225575
_cell_angle_alpha   90.00000000
_cell_angle_beta   90.00000000
_cell_angle_gamma   90.00000000
_symmetry_Int_Tables_number   1
_chemical_formula_structural   NaCl
_chemical_formula_sum   'Na4 Cl4'
_cell_volume   243.23421974
_cell_formula_units_Z   4
loop_
 _symmetry_equiv_pos_site_id
 _symmetry_equiv_pos_as_xyz
  1  'x, y, z'
loop_
 _atom_site_type_symbol
 _atom_site_label
 _atom_site_symmetry_multiplicity
 _atom_site_fract_x
 _atom_site_fract_y
 _atom_site_fract_z
 _atom_site_occupancy
  Na  Na0  1  0.27823269  0.27823269  0.27823269  1.0
  Na  Na1  1  0.90825153  0.40825153  0.09174847  1.0
  Na  Na2  1  0.75622522  0.74377478  0.25622522  1.0
  Na  Na3  1  0.09668385  0.90331615  0.40331615  1.0
  Cl  Cl4  1  0.84499579  0.84499579  0.84499579  1.0
  Cl  Cl5  1  0.48487829  0.98487829  0.51512171  1.0
  Cl  Cl6  1  0.13297461  0.36702539  0.63297461  1.0
  Cl  Cl7  1  0.59273457  0.40726543  0.90726543  1.0
