# generated using pymatgen
data_NaCl
_symmetry_space_group_name_H-M   'P 1'
_cell_length_a   6.36757276
_cell_length_b   6.36757276
_cell_length_c   8.51593471
_cell_angle_alpha   90.00000000
_cell_angle_beta   90.00000000
_cell_angle_gamma   90.00000000
_symmetry_Int_Tables_number   1
_chemical_formula_structural   NaCl
_chemical_formula_sum   'Na4 Cl4'
_cell_volume   345.28694274
_cell_formula_units_Z   4
loop_
 _symmetry_equiv_pos_site_id
 _symmetry_equiv_pos_as_xyz
  1  'x, y, z'
loop_
 _atom_site_type_symbol
 _atom_site_label
 _atom_site_symmetry_multiplicity
 _atom_site_fract_x
 _atom_site_fract_y
 _atom_site_fract_z
 _atom_site_occupancy
  Na  Na0  1  0.40379786  0.40379786  0.00000000  1.0
  Na  Na1  1  0.26990511  0.26990511  0.50000000  1.0
  Na  Na2  1  0.04525218  0.95474782  0.25000000  1.0
  Na  Na3  1  0.19980773  0.80019227  0.75000000  1.0
  Cl  Cl4  1  0.71156350  0.71156350  0.00000000  1.0
  Cl  Cl5  1  0.84087264  0.84087264  0.50000000  1.0
  Cl  Cl6  1  0.77077795  0.22922205  0.25000000  1.0
  Cl  Cl7  1  0.74195204  0.25804796  0.75000000  1.0
