# generated using pymatgen
data_NaCl
_symmetry_space_group_name_H-M   'P 1'
_cell_length_a   3.58602943
_cell_length_b   3.58602943
_cell_length_c   8.22040961
_cell_angle_alpha   90.00000000
_cell_angle_beta   90.00000000
_cell_angle_gamma   90.00000000
_symmetry_Int_Tables_number   1
_chemical_formula_structural   NaCl
_chemical_formula_sum   'Na4 Cl4'
_cell_volume   105.71123756
_cell_formula_units_Z   4
loop_
 _symmetry_equiv_pos_site_id
 _symmetry_equiv_pos_as_xyz
  1  'x, y, z'
loop_
 _atom_site_type_symbol
 _atom_site_label
 _atom_site_symmetry_multiplicity
 _atom_site_fract_x
 _atom_site_fract_y
 _atom_site_fract_z
 _atom_site_occupancy
  Na  Na0  1  0.54929943  0.30050175  0.05002900  1.0
  Na  Na1  1  0.29533758  0.00282361  0.88880165  1.0
  Na  Na2  1  0.96373693  0.34743345  0.15728821  1.0
  Na  Na3  1  0.57701522  0.44969239  0.56015316  1.0
  Cl  Cl4  1  0.66202961  0.16605089  0.80037938  1.0
  Cl  Cl5  1  0.95368054  0.30091335  0.94749185  1.0
  Cl  Cl6  1  0.95885279  0.74674679  0.05838108  1.0
  Cl  Cl7  1  0.50608963  0.98315205  0.78507800  1.0
