# generated using pymatgen
data_NaCl
_symmetry_space_group_name_H-M   'P 1'
_cell_length_a   4.40197726
_cell_length_b   4.40197726
_cell_length_c   7.60182116
_cell_angle_alpha   90.00000000
_cell_angle_beta   90.00000000
_cell_angle_gamma   90.00000000
_symmetry_Int_Tables_number   1
_chemical_formula_structural   NaCl
_chemical_formula_sum   'Na4 Cl4'
_cell_volume   147.30355821
_cell_formula_units_Z   4
loop_
 _symmetry_equiv_pos_site_id
 _symmetry_equiv_pos_as_xyz
  1  'x, y, z'
loop_
 _atom_site_type_symbol
 _atom_site_label
 _atom_site_symmetry_multiplicity
 _atom_site_fract_x
 _atom_site_fract_y
 _atom_site_fract_z
 _atom_site_occupancy
  Na  Na0  1  0.55779987  0.38500701  0.10352404  1.0
  Na  Na1  1  0.28177247  0.31934493  0.49336930  1.0
  Na  Na2  1  0.96882223  0.42650769  0.38948323  1.0
  Na  Na3  1  0.44896150  0.16434574  0.24121565  1.0
  Cl  Cl4  1  0.00000000  0.00000000  0.70692468  1.0
  Cl  Cl5  1  0.00000000  0.00000000  0.42721088  1.0
  Cl  Cl6  1  0.00000000  0.50000000  0.58170420  1.0
  Cl  Cl7  1  0.50000000  0.00000000  0.51087380  1.0
