# generated using pymatgen
data_NaCl
_symmetry_space_group_name_H-M   'P 1'
_cell_length_a   6.09372917
_cell_length_b   6.09372917
_cell_length_c   9.78599979
_cell_angle_alpha   90.00000000
_cell_angle_beta   90.00000000
_cell_angle_gamma   120.00000000
_symmetry_Int_Tables_number   1
_chemical_formula_structural   NaCl
_chemical_formula_sum   'Na4 Cl4'
_cell_volume   314.70390423
_cell_formula_units_Z   4
loop_
 _symmetry_equiv_pos_site_id
 _symmetry_equiv_pos_as_xyz
  1  'x, y, z'
loop_
 _atom_site_type_symbol
 _atom_site_label
 _atom_site_symmetry_multiplicity
 _atom_site_fract_x
 _atom_site_fract_y
 _atom_site_fract_z
 _atom_site_occupancy
  Na  Na0  1  0.00000000  0.00000000  0.19747903  1.0
  Na  Na1  1  0.92063068  0.00000000  0.79277432  1.0
  Na  Na2  1  0.00000000  0.45782759  0.36427565  1.0
  Na  Na3  1  0.30628399  0.30628399  0.14633928  1.0
  Cl  Cl4  1  0.00000000  0.00000000  0.94101854  1.0
  Cl  Cl5  1  0.33179580  0.00000000  0.49563408  1.0
  Cl  Cl6  1  0.00000000  0.94774748  0.38652310  1.0
  Cl  Cl7  1  0.85843609  0.85843609  0.67612652  1.0
