# generated using pymatgen
data_NaCl
_symmetry_space_group_name_H-M   'P 1'
_cell_length_a   3.29529049
_cell_length_b   3.29529049
_cell_length_c   7.55901344
_cell_angle_alpha   90.00000000
_cell_angle_beta   90.00000000
_cell_angle_gamma   90.00000000
_symmetry_Int_Tables_number   1
_chemical_formula_structural   NaCl
_chemical_formula_sum   'Na4 Cl4'
_cell_volume   82.08286897
_cell_formula_units_Z   4
loop_
 _symmetry_equiv_pos_site_id
 _symmetry_equiv_pos_as_xyz
  1  'x, y, z'
loop_
 _atom_site_type_symbol
 _atom_site_label
 _atom_site_symmetry_multiplicity
 _atom_site_fract_x
 _atom_site_fract_y
 _atom_site_fract_z
 _atom_site_occupancy
  Na  Na0  1  0.43837720  0.30967515  0.14620826  1.0
  Na  Na1  1  0.51481698  0.33622417  0.40524622  1.0
  Na  Na2  1  0.99991354  0.48556251  0.58658477  1.0
  Na  Na3  1  0.64425828  0.66114294  0.07407190  1.0
  Cl  Cl4  1  0.78415231  0.13823615  0.82507230  1.0
  Cl  Cl5  1  0.89204988  0.01957704  0.01399921  1.0
  Cl  Cl6  1  0.94247250  0.72078983  0.72820816  1.0
  Cl  Cl7  1  0.31847489  0.77819643  0.57186608  1.0
