# generated using pymatgen
data_NaCl
_symmetry_space_group_name_H-M   'P 1'
_cell_length_a   5.69746937
_cell_length_b   5.69746937
_cell_length_c   10.59145273
_cell_angle_alpha   90.00000000
_cell_angle_beta   90.00000000
_cell_angle_gamma   90.00000000
_symmetry_Int_Tables_number   1
_chemical_formula_structural   NaCl
_chemical_formula_sum   'Na4 Cl4'
_cell_volume   343.81081228
_cell_formula_units_Z   4
loop_
 _symmetry_equiv_pos_site_id
 _symmetry_equiv_pos_as_xyz
  1  'x, y, z'
loop_
 _atom_site_type_symbol
 _atom_site_label
 _atom_site_symmetry_multiplicity
 _atom_site_fract_x
 _atom_site_fract_y
 _atom_site_fract_z
 _atom_site_occupancy
  Na  Na0  1  0.58059480  0.58059480  0.18915314  1.0
  Na  Na1  1  0.17574946  0.17574946  0.84018940  1.0
  Na  Na2  1  0.11507909  0.88492091  0.93981126  1.0
  Na  Na3  1  0.89854795  0.10145205  0.85312806  1.0
  Cl  Cl4  1  0.70904161  0.70904161  0.90945426  1.0
  Cl  Cl5  1  0.84739472  0.84739472  0.31827477  1.0
  Cl  Cl6  1  0.77337032  0.22662968  0.94906010  1.0
  Cl  Cl7  1  0.66422292  0.33577708  0.32466295  1.0
