# generated using pymatgen
data_NaCl
_symmetry_space_group_name_H-M   'P 1'
_cell_length_a   3.51298927
_cell_length_b   17.48552240
_cell_length_c   4.62759985
_cell_angle_alpha   90.00000000
_cell_angle_beta   90.00000000
_cell_angle_gamma   90.00000000
_symmetry_Int_Tables_number   1
_chemical_formula_structural   NaCl
_chemical_formula_sum   'Na4 Cl4'
_cell_volume   284.25704271
_cell_formula_units_Z   4
loop_
 _symmetry_equiv_pos_site_id
 _symmetry_equiv_pos_as_xyz
  1  'x, y, z'
loop_
 _atom_site_type_symbol
 _atom_site_label
 _atom_site_symmetry_multiplicity
 _atom_site_fract_x
 _atom_site_fract_y
 _atom_site_fract_z
 _atom_site_occupancy
  Na  Na0  1  0.25000000  0.37484615  0.01753754  1.0
  Na  Na1  1  0.75000000  0.41368366  0.73640472  1.0
  Na  Na2  1  0.75000000  0.72084863  0.88697599  1.0
  Na  Na3  1  0.25000000  0.90102560  0.64140166  1.0
  Cl  Cl4  1  0.25000000  0.58953435  0.99692186  1.0
  Cl  Cl5  1  0.75000000  0.73065113  0.41607880  1.0
  Cl  Cl6  1  0.75000000  0.54456340  0.90890684  1.0
  Cl  Cl7  1  0.25000000  0.19891141  0.49968320  1.0
