# generated using pymatgen
data_NaCl
_symmetry_space_group_name_H-M   'P 1'
_cell_length_a   6.82362546
_cell_length_b   6.82362546
_cell_length_c   5.72769889
_cell_angle_alpha   90.00000000
_cell_angle_beta   90.00000000
_cell_angle_gamma   90.00000000
_symmetry_Int_Tables_number   1
_chemical_formula_structural   NaCl
_chemical_formula_sum   'Na4 Cl4'
_cell_volume   266.69233915
_cell_formula_units_Z   4
loop_
 _symmetry_equiv_pos_site_id
 _symmetry_equiv_pos_as_xyz
  1  'x, y, z'
loop_
 _atom_site_type_symbol
 _atom_site_label
 _atom_site_symmetry_multiplicity
 _atom_site_fract_x
 _atom_site_fract_y
 _atom_site_fract_z
 _atom_site_occupancy
  Na  Na0  1  0.44766061  0.94766061  0.14634564  1.0
  Na  Na1  1  0.13143762  0.63143762  0.62840179  1.0
  Na  Na2  1  0.08468295  0.41531705  0.24217414  1.0
  Na  Na3  1  0.63466844  0.86533156  0.11502162  1.0
  Cl  Cl4  1  0.65080254  0.15080254  0.85637447  1.0
  Cl  Cl5  1  0.76852259  0.26852259  0.52152925  1.0
  Cl  Cl6  1  0.59499093  0.90500907  0.38475570  1.0
  Cl  Cl7  1  0.58336116  0.91663884  0.66969168  1.0
