# generated using pymatgen
data_NaCl
_symmetry_space_group_name_H-M   'P 1'
_cell_length_a   5.87074851
_cell_length_b   5.87074851
_cell_length_c   7.84263784
_cell_angle_alpha   90.00000000
_cell_angle_beta   90.00000000
_cell_angle_gamma   90.00000000
_symmetry_Int_Tables_number   1
_chemical_formula_structural   NaCl
_chemical_formula_sum   'Na4 Cl4'
_cell_volume   270.30190942
_cell_formula_units_Z   4
loop_
 _symmetry_equiv_pos_site_id
 _symmetry_equiv_pos_as_xyz
  1  'x, y, z'
loop_
 _atom_site_type_symbol
 _atom_site_label
 _atom_site_symmetry_multiplicity
 _atom_site_fract_x
 _atom_site_fract_y
 _atom_site_fract_z
 _atom_site_occupancy
  Na  Na0  1  0.54583980  0.45845113  0.04183615  1.0
  Na  Na1  1  0.24006649  0.17041824  0.77074360  1.0
  Na  Na2  1  0.98235164  0.35578439  0.91301477  1.0
  Na  Na3  1  0.62362144  0.24033173  0.76744790  1.0
  Cl  Cl4  1  0.00000000  0.50000000  0.80714705  1.0
  Cl  Cl5  1  0.50000000  0.00000000  0.87708810  1.0
  Cl  Cl6  1  0.50000000  0.50000000  0.46080427  1.0
  Cl  Cl7  1  0.50000000  0.50000000  0.28933898  1.0
