# generated using pymatgen
data_NaCl
_symmetry_space_group_name_H-M   'P 1'
_cell_length_a   5.61149531
_cell_length_b   5.61149531
_cell_length_c   5.61149531
_cell_angle_alpha   90.00000000
_cell_angle_beta   90.00000000
_cell_angle_gamma   90.00000000
_symmetry_Int_Tables_number   1
_chemical_formula_structural   NaCl
_chemical_formula_sum   'Na4 Cl4'
_cell_volume   176.69970027
_cell_formula_units_Z   4
loop_
 _symmetry_equiv_pos_site_id
 _symmetry_equiv_pos_as_xyz
  1  'x, y, z'
loop_
 _atom_site_type_symbol
 _atom_site_label
 _atom_site_symmetry_multiplicity
 _atom_site_fract_x
 _atom_site_fract_y
 _atom_site_fract_z
 _atom_site_occupancy
  Na  Na0  1  0.48769036  0.48769036  0.48769036  1.0
  Na  Na1  1  0.80729169  0.30729169  0.19270831  1.0
  Na  Na2  1  0.61293081  0.88706919  0.11293081  1.0
  Na  Na3  1  0.32911480  0.67088520  0.17088520  1.0
  Cl  Cl4  1  0.64964202  0.64964202  0.64964202  1.0
  Cl  Cl5  1  0.49877664  0.99877664  0.50122336  1.0
  Cl  Cl6  1  0.31798593  0.18201407  0.81798593  1.0
  Cl  Cl7  1  0.73615319  0.26384681  0.76384681  1.0
