# generated using pymatgen
data_NaCl
_symmetry_space_group_name_H-M   'P 1'
_cell_length_a   2.00650733
_cell_length_b   17.83620365
_cell_length_c   5.13963133
_cell_angle_alpha   90.00000000
_cell_angle_beta   90.00000000
_cell_angle_gamma   90.00000000
_symmetry_Int_Tables_number   1
_chemical_formula_structural   NaCl
_chemical_formula_sum   'Na4 Cl4'
_cell_volume   183.93955895
_cell_formula_units_Z   4
loop_
 _symmetry_equiv_pos_site_id
 _symmetry_equiv_pos_as_xyz
  1  'x, y, z'
loop_
 _atom_site_type_symbol
 _atom_site_label
 _atom_site_symmetry_multiplicity
 _atom_site_fract_x
 _atom_site_fract_y
 _atom_site_fract_z
 _atom_site_occupancy
  Na  Na0  1  0.42784577  0.40919947  0.09574843  1.0
  Na  Na1  1  0.48190580  0.08315982  0.43355905  1.0
  Na  Na2  1  0.88899997  0.63867043  0.92441204  1.0
  Na  Na3  1  0.87365167  0.08067453  0.64774668  1.0
  Cl  Cl4  1  0.00000000  0.50000000  0.99950280  1.0
  Cl  Cl5  1  0.50000000  0.00000000  0.99011827  1.0
  Cl  Cl6  1  0.00000000  0.50000000  0.52616952  1.0
  Cl  Cl7  1  0.50000000  0.00000000  0.28085571  1.0
