# generated using pymatgen
data_NaCl
_symmetry_space_group_name_H-M   'P 1'
_cell_length_a   4.50925767
_cell_length_b   15.99395778
_cell_length_c   9.36087851
_cell_angle_alpha   90.00000000
_cell_angle_beta   37.59273445
_cell_angle_gamma   90.00000000
_symmetry_Int_Tables_number   1
_chemical_formula_structural   NaCl
_chemical_formula_sum   'Na4 Cl4'
_cell_volume   411.85017830
_cell_formula_units_Z   4
loop_
 _symmetry_equiv_pos_site_id
 _symmetry_equiv_pos_as_xyz
  1  'x, y, z'
loop_
 _atom_site_type_symbol
 _atom_site_label
 _atom_site_symmetry_multiplicity
 _atom_site_fract_x
 _atom_site_fract_y
 _atom_site_fract_z
 _atom_site_occupancy
  Na  Na0  1  0.52842279  0.38413138  0.19679285  1.0
  Na  Na1  1  0.25493777  0.89518850  0.63335559  1.0
  Na  Na2  1  0.04158070  0.65276656  0.48610616  1.0
  Na  Na3  1  0.78066767  0.09153583  0.65565099  1.0
  Cl  Cl4  1  0.00000000  0.07558479  0.00000000  1.0
  Cl  Cl5  1  0.50000000  0.39511188  0.00000000  1.0
  Cl  Cl6  1  0.00000000  0.35902222  0.50000000  1.0
  Cl  Cl7  1  0.50000000  0.94553477  0.50000000  1.0
