# generated using pymatgen
data_NaCl
_symmetry_space_group_name_H-M   'P 1'
_cell_length_a   4.51844622
_cell_length_b   4.51844622
_cell_length_c   9.74424566
_cell_angle_alpha   90.00000000
_cell_angle_beta   90.00000000
_cell_angle_gamma   90.00000000
_symmetry_Int_Tables_number   1
_chemical_formula_structural   NaCl
_chemical_formula_sum   'Na4 Cl4'
_cell_volume   198.94199071
_cell_formula_units_Z   4
loop_
 _symmetry_equiv_pos_site_id
 _symmetry_equiv_pos_as_xyz
  1  'x, y, z'
loop_
 _atom_site_type_symbol
 _atom_site_label
 _atom_site_symmetry_multiplicity
 _atom_site_fract_x
 _atom_site_fract_y
 _atom_site_fract_z
 _atom_site_occupancy
  Na  Na0  1  0.47186900  0.47186900  0.37500000  1.0
  Na  Na1  1  0.38229275  0.38229275  0.87500000  1.0
  Na  Na2  1  0.63451474  0.36548526  0.62500000  1.0
  Na  Na3  1  0.80301543  0.19698457  0.12500000  1.0
  Cl  Cl4  1  0.76009032  0.76009032  0.37500000  1.0
  Cl  Cl5  1  0.92550841  0.92550841  0.87500000  1.0
  Cl  Cl6  1  0.38837051  0.61162949  0.62500000  1.0
  Cl  Cl7  1  0.17635663  0.82364337  0.12500000  1.0
