# generated using pymatgen
data_NaCl
_symmetry_space_group_name_H-M   'P 1'
_cell_length_a   4.79990429
_cell_length_b   4.79990429
_cell_length_c   10.54547297
_cell_angle_alpha   90.00000000
_cell_angle_beta   90.00000000
_cell_angle_gamma   90.00000000
_symmetry_Int_Tables_number   1
_chemical_formula_structural   NaCl
_chemical_formula_sum   'Na4 Cl4'
_cell_volume   242.95800798
_cell_formula_units_Z   4
loop_
 _symmetry_equiv_pos_site_id
 _symmetry_equiv_pos_as_xyz
  1  'x, y, z'
loop_
 _atom_site_type_symbol
 _atom_site_label
 _atom_site_symmetry_multiplicity
 _atom_site_fract_x
 _atom_site_fract_y
 _atom_site_fract_z
 _atom_site_occupancy
  Na  Na0  1  0.61625081  0.61625081  0.35694085  1.0
  Na  Na1  1  0.32596948  0.32596948  0.83021161  1.0
  Na  Na2  1  0.11317413  0.88682587  0.80206481  1.0
  Na  Na3  1  0.37285059  0.62714941  0.86797192  1.0
  Cl  Cl4  1  0.00000000  0.50000000  0.99772583  1.0
  Cl  Cl5  1  0.00000000  0.50000000  0.87919827  1.0
  Cl  Cl6  1  0.50000000  0.00000000  0.98127433  1.0
  Cl  Cl7  1  0.50000000  0.00000000  0.38979920  1.0
