# generated using pymatgen
data_NaCl
_symmetry_space_group_name_H-M   'P 1'
_cell_length_a   6.34190617
_cell_length_b   6.34190617
_cell_length_c   6.34190617
_cell_angle_alpha   90.00000000
_cell_angle_beta   90.00000000
_cell_angle_gamma   90.00000000
_symmetry_Int_Tables_number   1
_chemical_formula_structural   NaCl
_chemical_formula_sum   'Na4 Cl4'
_cell_volume   255.07003206
_cell_formula_units_Z   4
loop_
 _symmetry_equiv_pos_site_id
 _symmetry_equiv_pos_as_xyz
  1  'x, y, z'
loop_
 _atom_site_type_symbol
 _atom_site_label
 _atom_site_symmetry_multiplicity
 _atom_site_fract_x
 _atom_site_fract_y
 _atom_site_fract_z
 _atom_site_occupancy
  Na  Na0  1  0.55155733  0.55155733  0.55155733  1.0
  Na  Na1  1  0.75125401  0.25125401  0.24874599  1.0
  Na  Na2  1  0.54318761  0.95681239  0.04318761  1.0
  Na  Na3  1  0.14468609  0.85531391  0.35531391  1.0
  Cl  Cl4  1  0.69064576  0.69064576  0.69064576  1.0
  Cl  Cl5  1  0.44106907  0.94106907  0.55893093  1.0
  Cl  Cl6  1  0.24730277  0.25269723  0.74730277  1.0
  Cl  Cl7  1  0.82087385  0.17912615  0.67912615  1.0
