# generated using pymatgen
data_NaCl
_symmetry_space_group_name_H-M   'P 1'
_cell_length_a   5.96158078
_cell_length_b   5.96158078
_cell_length_c   8.31837009
_cell_angle_alpha   90.00000000
_cell_angle_beta   90.00000000
_cell_angle_gamma   90.00000000
_symmetry_Int_Tables_number   1
_chemical_formula_structural   NaCl
_chemical_formula_sum   'Na4 Cl4'
_cell_volume   295.63857797
_cell_formula_units_Z   4
loop_
 _symmetry_equiv_pos_site_id
 _symmetry_equiv_pos_as_xyz
  1  'x, y, z'
loop_
 _atom_site_type_symbol
 _atom_site_label
 _atom_site_symmetry_multiplicity
 _atom_site_fract_x
 _atom_site_fract_y
 _atom_site_fract_z
 _atom_site_occupancy
  Na  Na0  1  0.56083394  0.56083394  0.00000000  1.0
  Na  Na1  1  0.11288743  0.11288743  0.50000000  1.0
  Na  Na2  1  0.05916211  0.94083789  0.25000000  1.0
  Na  Na3  1  0.21843341  0.78156659  0.75000000  1.0
  Cl  Cl4  1  0.81098744  0.81098744  0.00000000  1.0
  Cl  Cl5  1  0.96713350  0.96713350  0.50000000  1.0
  Cl  Cl6  1  0.76573309  0.23426691  0.25000000  1.0
  Cl  Cl7  1  0.57929950  0.42070050  0.75000000  1.0
