# generated using pymatgen
data_NaCl
_symmetry_space_group_name_H-M   'P 1'
_cell_length_a   4.99514717
_cell_length_b   10.08195271
_cell_length_c   7.76283255
_cell_angle_alpha   90.00000000
_cell_angle_beta   90.00000000
_cell_angle_gamma   90.00000000
_symmetry_Int_Tables_number   1
_chemical_formula_structural   NaCl
_chemical_formula_sum   'Na4 Cl4'
_cell_volume   390.94274896
_cell_formula_units_Z   4
loop_
 _symmetry_equiv_pos_site_id
 _symmetry_equiv_pos_as_xyz
  1  'x, y, z'
loop_
 _atom_site_type_symbol
 _atom_site_label
 _atom_site_symmetry_multiplicity
 _atom_site_fract_x
 _atom_site_fract_y
 _atom_site_fract_z
 _atom_site_occupancy
  Na  Na0  1  0.41858375  0.29499672  0.17617459  1.0
  Na  Na1  1  0.86334603  0.37343933  0.85208816  1.0
  Na  Na2  1  0.70179886  0.57868192  0.09647104  1.0
  Na  Na3  1  0.28631184  0.88521860  0.71086063  1.0
  Cl  Cl4  1  0.91021253  0.21950228  0.81866874  1.0
  Cl  Cl5  1  0.44180456  0.17956641  0.02349947  1.0
  Cl  Cl6  1  0.28146170  0.58082621  0.18858760  1.0
  Cl  Cl7  1  0.59692334  0.14901136  0.35909082  1.0
