# generated using pymatgen
data_NaCl
_symmetry_space_group_name_H-M   'P 1'
_cell_length_a   8.30705631
_cell_length_b   8.30705631
_cell_length_c   5.39857092
_cell_angle_alpha   90.00000000
_cell_angle_beta   90.00000000
_cell_angle_gamma   90.00000000
_symmetry_Int_Tables_number   1
_chemical_formula_structural   NaCl
_chemical_formula_sum   'Na4 Cl4'
_cell_volume   372.54017972
_cell_formula_units_Z   4
loop_
 _symmetry_equiv_pos_site_id
 _symmetry_equiv_pos_as_xyz
  1  'x, y, z'
loop_
 _atom_site_type_symbol
 _atom_site_label
 _atom_site_symmetry_multiplicity
 _atom_site_fract_x
 _atom_site_fract_y
 _atom_site_fract_z
 _atom_site_occupancy
  Na  Na0  1  0.46431294  0.45545819  0.10751237  1.0
  Na  Na1  1  0.59033954  0.17147973  0.93277417  1.0
  Na  Na2  1  0.90956229  0.40947589  0.10527071  1.0
  Na  Na3  1  0.56796740  0.97050875  0.63599563  1.0
  Cl  Cl4  1  0.80775886  0.15688750  0.84776993  1.0
  Cl  Cl5  1  0.98148952  0.09643851  0.78049966  1.0
  Cl  Cl6  1  0.67383249  0.83504701  0.25645391  1.0
  Cl  Cl7  1  0.26875680  0.93318953  0.86378492  1.0
