# generated using pymatgen
data_NaCl
_symmetry_space_group_name_H-M   'P 1'
_cell_length_a   6.43904829
_cell_length_b   6.43904829
_cell_length_c   9.14830584
_cell_angle_alpha   90.00000000
_cell_angle_beta   90.00000000
_cell_angle_gamma   90.00000000
_symmetry_Int_Tables_number   1
_chemical_formula_structural   NaCl
_chemical_formula_sum   'Na4 Cl4'
_cell_volume   379.30104521
_cell_formula_units_Z   4
loop_
 _symmetry_equiv_pos_site_id
 _symmetry_equiv_pos_as_xyz
  1  'x, y, z'
loop_
 _atom_site_type_symbol
 _atom_site_label
 _atom_site_symmetry_multiplicity
 _atom_site_fract_x
 _atom_site_fract_y
 _atom_site_fract_z
 _atom_site_occupancy
  Na  Na0  1  0.56037861  0.56037861  0.13163821  1.0
  Na  Na1  1  0.19021782  0.19021782  0.76093668  1.0
  Na  Na2  1  0.63067719  0.36932281  0.92126446  1.0
  Na  Na3  1  0.09902351  0.90097649  0.75395855  1.0
  Cl  Cl4  1  0.74242616  0.74242616  0.80089210  1.0
  Cl  Cl5  1  0.97555244  0.97555244  0.36497854  1.0
  Cl  Cl6  1  0.10180114  0.89819886  0.97963794  1.0
  Cl  Cl7  1  0.09591288  0.90408712  0.33693320  1.0
