# generated using pymatgen
data_NaCl
_symmetry_space_group_name_H-M   'P 1'
_cell_length_a   5.43190739
_cell_length_b   12.44026789
_cell_length_c   7.54458948
_cell_angle_alpha   90.00000000
_cell_angle_beta   42.99041501
_cell_angle_gamma   90.00000000
_symmetry_Int_Tables_number   1
_chemical_formula_structural   NaCl
_chemical_formula_sum   'Na4 Cl4'
_cell_volume   347.63469172
_cell_formula_units_Z   4
loop_
 _symmetry_equiv_pos_site_id
 _symmetry_equiv_pos_as_xyz
  1  'x, y, z'
loop_
 _atom_site_type_symbol
 _atom_site_label
 _atom_site_symmetry_multiplicity
 _atom_site_fract_x
 _atom_site_fract_y
 _atom_site_fract_z
 _atom_site_occupancy
  Na  Na0  1  0.45269477  0.28913973  0.18350070  1.0
  Na  Na1  1  0.65949623  0.32801982  0.82905731  1.0
  Na  Na2  1  0.97985089  0.57405286  0.52016547  1.0
  Na  Na3  1  0.19352207  0.87720432  0.79878763  1.0
  Cl  Cl4  1  0.77214011  0.15387013  0.85160026  1.0
  Cl  Cl5  1  0.24234806  0.07001438  0.04032286  1.0
  Cl  Cl6  1  0.12928408  0.50068148  0.56741170  1.0
  Cl  Cl7  1  0.72085713  0.22062524  0.03829502  1.0
