# generated using pymatgen
data_NaCl
_symmetry_space_group_name_H-M   'P 1'
_cell_length_a   6.41580969
_cell_length_b   6.41580969
_cell_length_c   6.20811922
_cell_angle_alpha   90.00000000
_cell_angle_beta   90.00000000
_cell_angle_gamma   90.00000000
_symmetry_Int_Tables_number   1
_chemical_formula_structural   NaCl
_chemical_formula_sum   'Na4 Cl4'
_cell_volume   255.54241498
_cell_formula_units_Z   4
loop_
 _symmetry_equiv_pos_site_id
 _symmetry_equiv_pos_as_xyz
  1  'x, y, z'
loop_
 _atom_site_type_symbol
 _atom_site_label
 _atom_site_symmetry_multiplicity
 _atom_site_fract_x
 _atom_site_fract_y
 _atom_site_fract_z
 _atom_site_occupancy
  Na  Na0  1  0.43415583  0.00000000  0.23009124  1.0
  Na  Na1  1  0.35051454  0.00000000  0.82604051  1.0
  Na  Na2  1  0.00000000  0.35052569  0.55530613  1.0
  Na  Na3  1  0.00000000  0.17619059  0.27596781  1.0
  Cl  Cl4  1  0.64056217  0.64056217  0.14027377  1.0
  Cl  Cl5  1  0.91130024  0.91130024  0.43523803  1.0
  Cl  Cl6  1  0.22973670  0.77026330  0.40214395  1.0
  Cl  Cl7  1  0.30189569  0.69810431  0.69450406  1.0
