# generated using pymatgen
data_NaCl
_symmetry_space_group_name_H-M   'P 1'
_cell_length_a   3.30968692
_cell_length_b   19.61494411
_cell_length_c   5.11938627
_cell_angle_alpha   90.00000000
_cell_angle_beta   90.00000000
_cell_angle_gamma   90.00000000
_symmetry_Int_Tables_number   1
_chemical_formula_structural   NaCl
_chemical_formula_sum   'Na4 Cl4'
_cell_volume   332.34709573
_cell_formula_units_Z   4
loop_
 _symmetry_equiv_pos_site_id
 _symmetry_equiv_pos_as_xyz
  1  'x, y, z'
loop_
 _atom_site_type_symbol
 _atom_site_label
 _atom_site_symmetry_multiplicity
 _atom_site_fract_x
 _atom_site_fract_y
 _atom_site_fract_z
 _atom_site_occupancy
  Na  Na0  1  0.00000000  0.37790937  0.11531337  1.0
  Na  Na1  1  0.00000000  0.26624089  0.96108938  1.0
  Na  Na2  1  0.50000000  0.50099365  0.29056018  1.0
  Na  Na3  1  0.50000000  0.84607774  0.77035288  1.0
  Cl  Cl4  1  0.00000000  0.17721419  0.83970551  1.0
  Cl  Cl5  1  0.00000000  0.03497548  0.90395096  1.0
  Cl  Cl6  1  0.50000000  0.65528381  0.98887899  1.0
  Cl  Cl7  1  0.50000000  0.11731707  0.18112254  1.0
