# generated using pymatgen
data_NaCl
_symmetry_space_group_name_H-M   'P 1'
_cell_length_a   5.78689426
_cell_length_b   5.78689426
_cell_length_c   10.67506050
_cell_angle_alpha   90.00000000
_cell_angle_beta   90.00000000
_cell_angle_gamma   90.00000000
_symmetry_Int_Tables_number   1
_chemical_formula_structural   NaCl
_chemical_formula_sum   'Na4 Cl4'
_cell_volume   357.48797579
_cell_formula_units_Z   4
loop_
 _symmetry_equiv_pos_site_id
 _symmetry_equiv_pos_as_xyz
  1  'x, y, z'
loop_
 _atom_site_type_symbol
 _atom_site_label
 _atom_site_symmetry_multiplicity
 _atom_site_fract_x
 _atom_site_fract_y
 _atom_site_fract_z
 _atom_site_occupancy
  Na  Na0  1  0.64034678  0.50000000  0.04816480  1.0
  Na  Na1  1  0.23107670  0.50000000  0.34954194  1.0
  Na  Na2  1  0.50000000  0.61902588  0.64160693  1.0
  Na  Na3  1  0.50000000  0.84484466  0.74660067  1.0
  Cl  Cl4  1  0.84346169  0.50000000  0.81999702  1.0
  Cl  Cl5  1  0.88477853  0.50000000  0.40789818  1.0
  Cl  Cl6  1  0.50000000  0.25768262  0.56212479  1.0
  Cl  Cl7  1  0.50000000  0.09711929  0.45303970  1.0
