# generated using pymatgen
data_NaCl
_symmetry_space_group_name_H-M   'P 1'
_cell_length_a   6.35589369
_cell_length_b   6.35589369
_cell_length_c   10.19906767
_cell_angle_alpha   90.00000000
_cell_angle_beta   90.00000000
_cell_angle_gamma   90.00000000
_symmetry_Int_Tables_number   1
_chemical_formula_structural   NaCl
_chemical_formula_sum   'Na4 Cl4'
_cell_volume   412.01565921
_cell_formula_units_Z   4
loop_
 _symmetry_equiv_pos_site_id
 _symmetry_equiv_pos_as_xyz
  1  'x, y, z'
loop_
 _atom_site_type_symbol
 _atom_site_label
 _atom_site_symmetry_multiplicity
 _atom_site_fract_x
 _atom_site_fract_y
 _atom_site_fract_z
 _atom_site_occupancy
  Na  Na0  1  0.58836913  0.08836913  0.16931190  1.0
  Na  Na1  1  0.21555528  0.71555528  0.66163210  1.0
  Na  Na2  1  0.15289665  0.34710335  0.37873732  1.0
  Na  Na3  1  0.66858915  0.83141085  0.32228625  1.0
  Cl  Cl4  1  0.77861276  0.27861276  0.88807247  1.0
  Cl  Cl5  1  0.94525043  0.44525043  0.14036667  1.0
  Cl  Cl6  1  0.80338673  0.69661327  0.42153368  1.0
  Cl  Cl7  1  0.68552760  0.81447240  0.61710756  1.0
