# generated using pymatgen
data_NaCl
_symmetry_space_group_name_H-M   'P 1'
_cell_length_a   3.09335328
_cell_length_b   16.40190113
_cell_length_c   6.17090692
_cell_angle_alpha   90.00000000
_cell_angle_beta   90.00000000
_cell_angle_gamma   90.00000000
_symmetry_Int_Tables_number   1
_chemical_formula_structural   NaCl
_chemical_formula_sum   'Na4 Cl4'
_cell_volume   313.09253093
_cell_formula_units_Z   4
loop_
 _symmetry_equiv_pos_site_id
 _symmetry_equiv_pos_as_xyz
  1  'x, y, z'
loop_
 _atom_site_type_symbol
 _atom_site_label
 _atom_site_symmetry_multiplicity
 _atom_site_fract_x
 _atom_site_fract_y
 _atom_site_fract_z
 _atom_site_occupancy
  Na  Na0  1  0.46932982  0.19915710  0.18159220  1.0
  Na  Na1  1  0.22831246  0.28362569  0.23427421  1.0
  Na  Na2  1  0.81025510  0.95497370  0.80817698  1.0
  Na  Na3  1  0.83403475  0.56208074  0.85130885  1.0
  Cl  Cl4  1  0.75344275  0.49792179  0.71622354  1.0
  Cl  Cl5  1  0.72671967  0.21140003  0.91190997  1.0
  Cl  Cl6  1  0.35372463  0.92987564  0.25028063  1.0
  Cl  Cl7  1  0.19814127  0.42650049  0.15278720  1.0
