# generated using pymatgen
data_NaCl
_symmetry_space_group_name_H-M   'P 1'
_cell_length_a   4.10463041
_cell_length_b   4.10463041
_cell_length_c   7.26781520
_cell_angle_alpha   90.00000000
_cell_angle_beta   90.00000000
_cell_angle_gamma   90.00000000
_symmetry_Int_Tables_number   1
_chemical_formula_structural   NaCl
_chemical_formula_sum   'Na4 Cl4'
_cell_volume   122.44808365
_cell_formula_units_Z   4
loop_
 _symmetry_equiv_pos_site_id
 _symmetry_equiv_pos_as_xyz
  1  'x, y, z'
loop_
 _atom_site_type_symbol
 _atom_site_label
 _atom_site_symmetry_multiplicity
 _atom_site_fract_x
 _atom_site_fract_y
 _atom_site_fract_z
 _atom_site_occupancy
  Na  Na0  1  0.55425205  0.43920836  0.15170940  1.0
  Na  Na1  1  0.31495426  0.21891179  0.96045841  1.0
  Na  Na2  1  0.97242859  0.33563802  0.20116104  1.0
  Na  Na3  1  0.56557998  0.53711823  0.51354739  1.0
  Cl  Cl4  1  0.73356421  0.26880210  0.92537341  1.0
  Cl  Cl5  1  0.81707433  0.61659014  0.82517038  1.0
  Cl  Cl6  1  0.96639454  0.62504114  0.39201783  1.0
  Cl  Cl7  1  0.54937886  0.75363729  0.80679811  1.0
