# generated using pymatgen
data_NaCl
_symmetry_space_group_name_H-M   'P 1'
_cell_length_a   4.98551755
_cell_length_b   4.98551755
_cell_length_c   12.78327460
_cell_angle_alpha   90.00000000
_cell_angle_beta   90.00000000
_cell_angle_gamma   90.00000000
_symmetry_Int_Tables_number   1
_chemical_formula_structural   NaCl
_chemical_formula_sum   'Na4 Cl4'
_cell_volume   317.73321483
_cell_formula_units_Z   4
loop_
 _symmetry_equiv_pos_site_id
 _symmetry_equiv_pos_as_xyz
  1  'x, y, z'
loop_
 _atom_site_type_symbol
 _atom_site_label
 _atom_site_symmetry_multiplicity
 _atom_site_fract_x
 _atom_site_fract_y
 _atom_site_fract_z
 _atom_site_occupancy
  Na  Na0  1  0.47216807  0.52543020  0.15346786  1.0
  Na  Na1  1  0.29314086  0.14470307  0.85380574  1.0
  Na  Na2  1  0.95150460  0.28190307  0.65552987  1.0
  Na  Na3  1  0.70205001  0.37989625  0.94015035  1.0
  Cl  Cl4  1  0.70297376  0.13544241  0.83366033  1.0
  Cl  Cl5  1  0.98001636  0.18779004  0.85756054  1.0
  Cl  Cl6  1  0.67231749  0.70198959  0.72503029  1.0
  Cl  Cl7  1  0.48382737  0.89188883  0.52395931  1.0
