# generated using pymatgen
data_NaCl
_symmetry_space_group_name_H-M   'P 1'
_cell_length_a   4.11479921
_cell_length_b   4.11479921
_cell_length_c   6.73395724
_cell_angle_alpha   90.00000000
_cell_angle_beta   90.00000000
_cell_angle_gamma   90.00000000
_symmetry_Int_Tables_number   1
_chemical_formula_structural   NaCl
_chemical_formula_sum   'Na4 Cl4'
_cell_volume   114.01648548
_cell_formula_units_Z   4
loop_
 _symmetry_equiv_pos_site_id
 _symmetry_equiv_pos_as_xyz
  1  'x, y, z'
loop_
 _atom_site_type_symbol
 _atom_site_label
 _atom_site_symmetry_multiplicity
 _atom_site_fract_x
 _atom_site_fract_y
 _atom_site_fract_z
 _atom_site_occupancy
  Na  Na0  1  0.51613308  0.51613308  0.00000000  1.0
  Na  Na1  1  0.39766921  0.39766921  0.50000000  1.0
  Na  Na2  1  0.24529269  0.75470731  0.25000000  1.0
  Na  Na3  1  0.20910038  0.79089962  0.75000000  1.0
  Cl  Cl4  1  0.79125510  0.79125510  0.00000000  1.0
  Cl  Cl5  1  0.83975163  0.83975163  0.50000000  1.0
  Cl  Cl6  1  0.75142729  0.24857271  0.25000000  1.0
  Cl  Cl7  1  0.59774391  0.40225609  0.75000000  1.0
