# generated using pymatgen
data_NaCl
_symmetry_space_group_name_H-M   'P 1'
_cell_length_a   4.57109383
_cell_length_b   4.57109383
_cell_length_c   9.68793709
_cell_angle_alpha   90.00000000
_cell_angle_beta   90.00000000
_cell_angle_gamma   90.00000000
_symmetry_Int_Tables_number   1
_chemical_formula_structural   NaCl
_chemical_formula_sum   'Na4 Cl4'
_cell_volume   202.42846510
_cell_formula_units_Z   4
loop_
 _symmetry_equiv_pos_site_id
 _symmetry_equiv_pos_as_xyz
  1  'x, y, z'
loop_
 _atom_site_type_symbol
 _atom_site_label
 _atom_site_symmetry_multiplicity
 _atom_site_fract_x
 _atom_site_fract_y
 _atom_site_fract_z
 _atom_site_occupancy
  Na  Na0  1  0.66747245  0.45080316  0.23777580  1.0
  Na  Na1  1  0.05379707  0.01741059  0.82437812  1.0
  Na  Na2  1  0.90716094  0.32818199  0.59887000  1.0
  Na  Na3  1  0.56299554  0.33359196  0.49921724  1.0
  Cl  Cl4  1  0.77434539  0.14257459  0.75653819  1.0
  Cl  Cl5  1  0.72580902  0.32819133  0.97903136  1.0
  Cl  Cl6  1  0.99844779  0.87538904  0.17631748  1.0
  Cl  Cl7  1  0.33651737  0.69962675  0.64335033  1.0
