# generated using pymatgen
data_NaCl
_symmetry_space_group_name_H-M   'P 1'
_cell_length_a   7.03584655
_cell_length_b   7.03584655
_cell_length_c   7.56535038
_cell_angle_alpha   90.00000000
_cell_angle_beta   90.00000000
_cell_angle_gamma   90.00000000
_symmetry_Int_Tables_number   1
_chemical_formula_structural   NaCl
_chemical_formula_sum   'Na4 Cl4'
_cell_volume   374.50857386
_cell_formula_units_Z   4
loop_
 _symmetry_equiv_pos_site_id
 _symmetry_equiv_pos_as_xyz
  1  'x, y, z'
loop_
 _atom_site_type_symbol
 _atom_site_label
 _atom_site_symmetry_multiplicity
 _atom_site_fract_x
 _atom_site_fract_y
 _atom_site_fract_z
 _atom_site_occupancy
  Na  Na0  1  0.39857476  0.46983936  0.13454413  1.0
  Na  Na1  1  0.27838400  0.26208285  0.87898038  1.0
  Na  Na2  1  0.98377661  0.25756511  0.26325027  1.0
  Na  Na3  1  0.63423763  0.34641085  0.71917126  1.0
  Cl  Cl4  1  0.78900580  0.09571972  0.69539027  1.0
  Cl  Cl5  1  0.98327938  0.11472929  0.85469103  1.0
  Cl  Cl6  1  0.87226219  0.79136040  0.24356997  1.0
  Cl  Cl7  1  0.34557946  0.87196516  0.83992326  1.0
