# generated using pymatgen
data_NaCl
_symmetry_space_group_name_H-M   'P 1'
_cell_length_a   5.87162827
_cell_length_b   5.87162827
_cell_length_c   11.32245041
_cell_angle_alpha   90.00000000
_cell_angle_beta   90.00000000
_cell_angle_gamma   90.00000000
_symmetry_Int_Tables_number   1
_chemical_formula_structural   NaCl
_chemical_formula_sum   'Na4 Cl4'
_cell_volume   390.35301027
_cell_formula_units_Z   4
loop_
 _symmetry_equiv_pos_site_id
 _symmetry_equiv_pos_as_xyz
  1  'x, y, z'
loop_
 _atom_site_type_symbol
 _atom_site_label
 _atom_site_symmetry_multiplicity
 _atom_site_fract_x
 _atom_site_fract_y
 _atom_site_fract_z
 _atom_site_occupancy
  Na  Na0  1  0.55705047  0.55705047  0.37500000  1.0
  Na  Na1  1  0.09011287  0.09011287  0.87500000  1.0
  Na  Na2  1  0.59619531  0.40380469  0.62500000  1.0
  Na  Na3  1  0.64889176  0.35110824  0.12500000  1.0
  Cl  Cl4  1  0.74477522  0.74477522  0.37500000  1.0
  Cl  Cl5  1  0.78100244  0.78100244  0.87500000  1.0
  Cl  Cl6  1  0.10753096  0.89246904  0.62500000  1.0
  Cl  Cl7  1  0.27987902  0.72012098  0.12500000  1.0
