# generated using pymatgen
data_NaCl
_symmetry_space_group_name_H-M   'P 1'
_cell_length_a   5.24148149
_cell_length_b   5.24148149
_cell_length_c   6.03926526
_cell_angle_alpha   90.00000000
_cell_angle_beta   90.00000000
_cell_angle_gamma   90.00000000
_symmetry_Int_Tables_number   1
_chemical_formula_structural   NaCl
_chemical_formula_sum   'Na4 Cl4'
_cell_volume   165.91750878
_cell_formula_units_Z   4
loop_
 _symmetry_equiv_pos_site_id
 _symmetry_equiv_pos_as_xyz
  1  'x, y, z'
loop_
 _atom_site_type_symbol
 _atom_site_label
 _atom_site_symmetry_multiplicity
 _atom_site_fract_x
 _atom_site_fract_y
 _atom_site_fract_z
 _atom_site_occupancy
  Na  Na0  1  0.49914651  0.33583102  0.11166966  1.0
  Na  Na1  1  0.12719316  0.26444086  0.07765210  1.0
  Na  Na2  1  0.83724284  0.50256733  0.50846672  1.0
  Na  Na3  1  0.62034932  0.78929662  0.95162519  1.0
  Cl  Cl4  1  0.71001869  0.20085335  0.86057365  1.0
  Cl  Cl5  1  0.69703462  0.34465754  0.98289788  1.0
  Cl  Cl6  1  0.99998438  0.86046686  0.56982359  1.0
  Cl  Cl7  1  0.64954076  0.93951759  0.45547305  1.0
