# generated using pymatgen
data_NaCl
_symmetry_space_group_name_H-M   'P 1'
_cell_length_a   5.79967742
_cell_length_b   14.60152521
_cell_length_c   3.09248294
_cell_angle_alpha   90.00000000
_cell_angle_beta   39.73210961
_cell_angle_gamma   90.00000000
_symmetry_Int_Tables_number   1
_chemical_formula_structural   NaCl
_chemical_formula_sum   'Na4 Cl4'
_cell_volume   167.39612275
_cell_formula_units_Z   4
loop_
 _symmetry_equiv_pos_site_id
 _symmetry_equiv_pos_as_xyz
  1  'x, y, z'
loop_
 _atom_site_type_symbol
 _atom_site_label
 _atom_site_symmetry_multiplicity
 _atom_site_fract_x
 _atom_site_fract_y
 _atom_site_fract_z
 _atom_site_occupancy
  Na  Na0  1  0.55904223  0.42966599  0.11795361  1.0
  Na  Na1  1  0.52377210  0.34594886  0.47976929  1.0
  Na  Na2  1  0.58897602  0.93201353  0.70655663  1.0
  Na  Na3  1  0.60407867  0.80633177  0.52777510  1.0
  Cl  Cl4  1  0.70438229  0.28584538  0.91733115  1.0
  Cl  Cl5  1  0.90278849  0.44750268  0.54148862  1.0
  Cl  Cl6  1  0.17424562  0.88235997  0.68766522  1.0
  Cl  Cl7  1  0.10032891  0.03322386  0.82893955  1.0
