# generated using pymatgen
data_NaCl
_symmetry_space_group_name_H-M   'P 1'
_cell_length_a   6.68574817
_cell_length_b   6.68574817
_cell_length_c   6.68574817
_cell_angle_alpha   90.00000000
_cell_angle_beta   90.00000000
_cell_angle_gamma   90.00000000
_symmetry_Int_Tables_number   1
_chemical_formula_structural   NaCl
_chemical_formula_sum   'Na4 Cl4'
_cell_volume   298.84778576
_cell_formula_units_Z   4
loop_
 _symmetry_equiv_pos_site_id
 _symmetry_equiv_pos_as_xyz
  1  'x, y, z'
loop_
 _atom_site_type_symbol
 _atom_site_label
 _atom_site_symmetry_multiplicity
 _atom_site_fract_x
 _atom_site_fract_y
 _atom_site_fract_z
 _atom_site_occupancy
  Na  Na0  1  0.59130402  0.59130402  0.59130402  1.0
  Na  Na1  1  0.67642567  0.67642567  0.32357433  1.0
  Na  Na2  1  0.68795599  0.31204401  0.68795599  1.0
  Na  Na3  1  0.69509799  0.30490201  0.30490201  1.0
  Cl  Cl4  1  0.88797613  0.88797613  0.88797613  1.0
  Cl  Cl5  1  0.87359114  0.87359114  0.12640886  1.0
  Cl  Cl6  1  0.38674430  0.61325570  0.38674430  1.0
  Cl  Cl7  1  0.15061412  0.84938588  0.84938588  1.0
