# generated using pymatgen
data_NaCl
_symmetry_space_group_name_H-M   'P 1'
_cell_length_a   7.02880129
_cell_length_b   7.02880129
_cell_length_c   8.05573301
_cell_angle_alpha   90.00000000
_cell_angle_beta   90.00000000
_cell_angle_gamma   90.00000000
_symmetry_Int_Tables_number   1
_chemical_formula_structural   NaCl
_chemical_formula_sum   'Na4 Cl4'
_cell_volume   397.98581687
_cell_formula_units_Z   4
loop_
 _symmetry_equiv_pos_site_id
 _symmetry_equiv_pos_as_xyz
  1  'x, y, z'
loop_
 _atom_site_type_symbol
 _atom_site_label
 _atom_site_symmetry_multiplicity
 _atom_site_fract_x
 _atom_site_fract_y
 _atom_site_fract_z
 _atom_site_occupancy
  Na  Na0  1  0.51681264  0.00000000  0.09591300  1.0
  Na  Na1  1  0.21006017  0.00000000  0.32251055  1.0
  Na  Na2  1  0.00000000  0.48278789  0.43256234  1.0
  Na  Na3  1  0.00000000  0.44569648  0.21643270  1.0
  Cl  Cl4  1  0.00000000  0.00000000  0.87357109  1.0
  Cl  Cl5  1  0.00000000  0.00000000  0.31534291  1.0
  Cl  Cl6  1  0.00000000  0.00000000  0.55373788  1.0
  Cl  Cl7  1  0.50000000  0.50000000  0.56298039  1.0
