# generated using pymatgen
data_NaCl
_symmetry_space_group_name_H-M   'P 1'
_cell_length_a   5.06576794
_cell_length_b   18.90550420
_cell_length_c   3.10105207
_cell_angle_alpha   90.00000000
_cell_angle_beta   90.00000000
_cell_angle_gamma   90.00000000
_symmetry_Int_Tables_number   1
_chemical_formula_structural   NaCl
_chemical_formula_sum   'Na4 Cl4'
_cell_volume   296.99053859
_cell_formula_units_Z   4
loop_
 _symmetry_equiv_pos_site_id
 _symmetry_equiv_pos_as_xyz
  1  'x, y, z'
loop_
 _atom_site_type_symbol
 _atom_site_label
 _atom_site_symmetry_multiplicity
 _atom_site_fract_x
 _atom_site_fract_y
 _atom_site_fract_z
 _atom_site_occupancy
  Na  Na0  1  0.39536760  0.27811533  0.00085006  1.0
  Na  Na1  1  0.10072237  0.17196797  0.46811835  1.0
  Na  Na2  1  0.11982716  0.97862033  0.86653108  1.0
  Na  Na3  1  0.27931362  0.66045964  0.27843578  1.0
  Cl  Cl4  1  0.94572017  0.11239522  0.74873864  1.0
  Cl  Cl5  1  0.43651207  0.10700485  0.76613965  1.0
  Cl  Cl6  1  0.11640938  0.62661979  0.07982615  1.0
  Cl  Cl7  1  0.99950534  0.31023933  0.85366703  1.0
