# generated using pymatgen
data_NaCl
_symmetry_space_group_name_H-M   'P 1'
_cell_length_a   6.45038941
_cell_length_b   6.45038941
_cell_length_c   7.92870754
_cell_angle_alpha   90.00000000
_cell_angle_beta   90.00000000
_cell_angle_gamma   90.00000000
_symmetry_Int_Tables_number   1
_chemical_formula_structural   NaCl
_chemical_formula_sum   'Na4 Cl4'
_cell_volume   329.89388562
_cell_formula_units_Z   4
loop_
 _symmetry_equiv_pos_site_id
 _symmetry_equiv_pos_as_xyz
  1  'x, y, z'
loop_
 _atom_site_type_symbol
 _atom_site_label
 _atom_site_symmetry_multiplicity
 _atom_site_fract_x
 _atom_site_fract_y
 _atom_site_fract_z
 _atom_site_occupancy
  Na  Na0  1  0.56053179  0.56053179  0.00000000  1.0
  Na  Na1  1  0.07675539  0.07675539  0.50000000  1.0
  Na  Na2  1  0.03910904  0.96089096  0.25000000  1.0
  Na  Na3  1  0.19892674  0.80107326  0.75000000  1.0
  Cl  Cl4  1  0.76741330  0.76741330  0.00000000  1.0
  Cl  Cl5  1  0.68560837  0.68560837  0.50000000  1.0
  Cl  Cl6  1  0.61740924  0.38259076  0.25000000  1.0
  Cl  Cl7  1  0.59059736  0.40940264  0.75000000  1.0
