# generated using pymatgen
data_NaCl
_symmetry_space_group_name_H-M   'P 1'
_cell_length_a   4.77707700
_cell_length_b   19.69538433
_cell_length_c   5.62524229
_cell_angle_alpha   90.00000000
_cell_angle_beta   47.65261903
_cell_angle_gamma   90.00000000
_symmetry_Int_Tables_number   1
_chemical_formula_structural   NaCl
_chemical_formula_sum   'Na4 Cl4'
_cell_volume   391.16143481
_cell_formula_units_Z   4
loop_
 _symmetry_equiv_pos_site_id
 _symmetry_equiv_pos_as_xyz
  1  'x, y, z'
loop_
 _atom_site_type_symbol
 _atom_site_label
 _atom_site_symmetry_multiplicity
 _atom_site_fract_x
 _atom_site_fract_y
 _atom_site_fract_z
 _atom_site_occupancy
  Na  Na0  1  0.47981674  0.33781295  0.23671645  1.0
  Na  Na1  1  0.32835132  0.72534870  0.50310414  1.0
  Na  Na2  1  0.77593363  0.53510475  0.53725851  1.0
  Na  Na3  1  0.77636651  0.05117198  0.72281392  1.0
  Cl  Cl4  1  0.00000000  0.31583836  0.00000000  1.0
  Cl  Cl5  1  0.50000000  0.36242779  0.00000000  1.0
  Cl  Cl6  1  0.00000000  0.18740554  0.50000000  1.0
  Cl  Cl7  1  0.50000000  0.89878155  0.50000000  1.0
