# generated using pymatgen
data_NaCl
_symmetry_space_group_name_H-M   'P 1'
_cell_length_a   6.04066802
_cell_length_b   6.04066802
_cell_length_c   6.04066802
_cell_angle_alpha   90.00000000
_cell_angle_beta   90.00000000
_cell_angle_gamma   90.00000000
_symmetry_Int_Tables_number   1
_chemical_formula_structural   NaCl
_chemical_formula_sum   'Na4 Cl4'
_cell_volume   220.42198340
_cell_formula_units_Z   4
loop_
 _symmetry_equiv_pos_site_id
 _symmetry_equiv_pos_as_xyz
  1  'x, y, z'
loop_
 _atom_site_type_symbol
 _atom_site_label
 _atom_site_symmetry_multiplicity
 _atom_site_fract_x
 _atom_site_fract_y
 _atom_site_fract_z
 _atom_site_occupancy
  Na  Na0  1  0.46276493  0.46276493  0.46276493  1.0
  Na  Na1  1  0.50865644  0.00865644  0.49134356  1.0
  Na  Na2  1  0.52030735  0.97969265  0.02030735  1.0
  Na  Na3  1  0.19596843  0.80403157  0.30403157  1.0
  Cl  Cl4  1  0.77677360  0.77677360  0.77677360  1.0
  Cl  Cl5  1  0.15182068  0.65182068  0.84817932  1.0
  Cl  Cl6  1  0.12518232  0.37481768  0.62518232  1.0
  Cl  Cl7  1  0.57977702  0.42022298  0.92022298  1.0
