# generated using pymatgen
data_NaCl
_symmetry_space_group_name_H-M   'P 1'
_cell_length_a   3.79317931
_cell_length_b   13.22044341
_cell_length_c   7.99961264
_cell_angle_alpha   90.00000000
_cell_angle_beta   90.00000000
_cell_angle_gamma   90.00000000
_symmetry_Int_Tables_number   1
_chemical_formula_structural   NaCl
_chemical_formula_sum   'Na4 Cl4'
_cell_volume   401.16067415
_cell_formula_units_Z   4
loop_
 _symmetry_equiv_pos_site_id
 _symmetry_equiv_pos_as_xyz
  1  'x, y, z'
loop_
 _atom_site_type_symbol
 _atom_site_label
 _atom_site_symmetry_multiplicity
 _atom_site_fract_x
 _atom_site_fract_y
 _atom_site_fract_z
 _atom_site_occupancy
  Na  Na0  1  0.16810469  0.52381763  0.04278818  1.0
  Na  Na1  1  0.41975075  0.25694187  0.82573180  1.0
  Na  Na2  1  0.83444643  0.95214214  0.38772803  1.0
  Na  Na3  1  0.98492872  0.48596670  0.68362130  1.0
  Cl  Cl4  1  0.84271765  0.20767884  0.67535274  1.0
  Cl  Cl5  1  0.48454877  0.58102750  0.15124597  1.0
  Cl  Cl6  1  0.15316005  0.85108441  0.48271884  1.0
  Cl  Cl7  1  0.28464734  0.65466023  0.14869699  1.0
