# generated using pymatgen
data_NaCl
_symmetry_space_group_name_H-M   'P 1'
_cell_length_a   6.74139188
_cell_length_b   6.74139188
_cell_length_c   7.40540730
_cell_angle_alpha   90.00000000
_cell_angle_beta   90.00000000
_cell_angle_gamma   90.00000000
_symmetry_Int_Tables_number   1
_chemical_formula_structural   NaCl
_chemical_formula_sum   'Na4 Cl4'
_cell_volume   336.54883928
_cell_formula_units_Z   4
loop_
 _symmetry_equiv_pos_site_id
 _symmetry_equiv_pos_as_xyz
  1  'x, y, z'
loop_
 _atom_site_type_symbol
 _atom_site_label
 _atom_site_symmetry_multiplicity
 _atom_site_fract_x
 _atom_site_fract_y
 _atom_site_fract_z
 _atom_site_occupancy
  Na  Na0  1  0.45848905  0.45848905  0.24336368  1.0
  Na  Na1  1  0.16634991  0.16634991  0.71986830  1.0
  Na  Na2  1  0.41498835  0.58501165  0.86780565  1.0
  Na  Na3  1  0.06428024  0.93571976  0.61086363  1.0
  Cl  Cl4  1  0.00000000  0.50000000  0.95856241  1.0
  Cl  Cl5  1  0.50000000  0.00000000  0.06602302  1.0
  Cl  Cl6  1  0.00000000  0.50000000  0.74664032  1.0
  Cl  Cl7  1  0.50000000  0.00000000  0.61731130  1.0
