# generated using pymatgen
data_NaCl
_symmetry_space_group_name_H-M   'P 1'
_cell_length_a   6.68104321
_cell_length_b   14.40793949
_cell_length_c   4.01082133
_cell_angle_alpha   90.00000000
_cell_angle_beta   90.00000000
_cell_angle_gamma   90.00000000
_symmetry_Int_Tables_number   1
_chemical_formula_structural   NaCl
_chemical_formula_sum   'Na4 Cl4'
_cell_volume   386.08192714
_cell_formula_units_Z   4
loop_
 _symmetry_equiv_pos_site_id
 _symmetry_equiv_pos_as_xyz
  1  'x, y, z'
loop_
 _atom_site_type_symbol
 _atom_site_label
 _atom_site_symmetry_multiplicity
 _atom_site_fract_x
 _atom_site_fract_y
 _atom_site_fract_z
 _atom_site_occupancy
  Na  Na0  1  0.25000000  0.28265986  0.20662526  1.0
  Na  Na1  1  0.75000000  0.13411739  0.79772732  1.0
  Na  Na2  1  0.25000000  0.53341654  0.86230179  1.0
  Na  Na3  1  0.75000000  0.04169040  0.82608120  1.0
  Cl  Cl4  1  0.25000000  0.26941496  0.81427516  1.0
  Cl  Cl5  1  0.75000000  0.11346672  0.25730035  1.0
  Cl  Cl6  1  0.25000000  0.66674193  0.77794211  1.0
  Cl  Cl7  1  0.75000000  0.98505625  0.32962164  1.0
