# generated using pymatgen
data_NaCl
_symmetry_space_group_name_H-M   'P 1'
_cell_length_a   6.49721356
_cell_length_b   6.49721356
_cell_length_c   6.55484504
_cell_angle_alpha   90.00000000
_cell_angle_beta   90.00000000
_cell_angle_gamma   90.00000000
_symmetry_Int_Tables_number   1
_chemical_formula_structural   NaCl
_chemical_formula_sum   'Na4 Cl4'
_cell_volume   276.70481296
_cell_formula_units_Z   4
loop_
 _symmetry_equiv_pos_site_id
 _symmetry_equiv_pos_as_xyz
  1  'x, y, z'
loop_
 _atom_site_type_symbol
 _atom_site_label
 _atom_site_symmetry_multiplicity
 _atom_site_fract_x
 _atom_site_fract_y
 _atom_site_fract_z
 _atom_site_occupancy
  Na  Na0  1  0.48002745  0.44680359  0.12257310  1.0
  Na  Na1  1  0.25110753  0.27692989  0.22837847  1.0
  Na  Na2  1  0.98350472  0.38279182  0.68350588  1.0
  Na  Na3  1  0.65660284  0.32244014  0.02572223  1.0
  Cl  Cl4  1  0.67303941  0.06778421  0.83824121  1.0
  Cl  Cl5  1  0.99969523  0.16868696  0.91143416  1.0
  Cl  Cl6  1  0.86696188  0.69371496  0.71818842  1.0
  Cl  Cl7  1  0.40134068  0.81453660  0.54774004  1.0
