# generated using pymatgen
data_NaCl
_symmetry_space_group_name_H-M   'P 1'
_cell_length_a   8.74776955
_cell_length_b   8.74776955
_cell_length_c   4.66445892
_cell_angle_alpha   90.00000000
_cell_angle_beta   90.00000000
_cell_angle_gamma   90.00000000
_symmetry_Int_Tables_number   1
_chemical_formula_structural   NaCl
_chemical_formula_sum   'Na4 Cl4'
_cell_volume   356.94059203
_cell_formula_units_Z   4
loop_
 _symmetry_equiv_pos_site_id
 _symmetry_equiv_pos_as_xyz
  1  'x, y, z'
loop_
 _atom_site_type_symbol
 _atom_site_label
 _atom_site_symmetry_multiplicity
 _atom_site_fract_x
 _atom_site_fract_y
 _atom_site_fract_z
 _atom_site_occupancy
  Na  Na0  1  0.53546377  0.00000000  0.15675103  1.0
  Na  Na1  1  0.34040004  0.00000000  0.93237794  1.0
  Na  Na2  1  0.00000000  0.51613098  0.68610663  1.0
  Na  Na3  1  0.00000000  0.28184868  0.69972080  1.0
  Cl  Cl4  1  0.60991790  0.60991790  0.50000000  1.0
  Cl  Cl5  1  0.94605685  0.94605685  0.50000000  1.0
  Cl  Cl6  1  0.62693516  0.37306484  0.50000000  1.0
  Cl  Cl7  1  0.88608879  0.11391121  0.50000000  1.0
