# generated using pymatgen
data_NaCl
_symmetry_space_group_name_H-M   'P 1'
_cell_length_a   4.21280891
_cell_length_b   4.21280891
_cell_length_c   4.28956785
_cell_angle_alpha   90.00000000
_cell_angle_beta   90.00000000
_cell_angle_gamma   90.00000000
_symmetry_Int_Tables_number   1
_chemical_formula_structural   NaCl
_chemical_formula_sum   'Na4 Cl4'
_cell_volume   76.13021604
_cell_formula_units_Z   4
loop_
 _symmetry_equiv_pos_site_id
 _symmetry_equiv_pos_as_xyz
  1  'x, y, z'
loop_
 _atom_site_type_symbol
 _atom_site_label
 _atom_site_symmetry_multiplicity
 _atom_site_fract_x
 _atom_site_fract_y
 _atom_site_fract_z
 _atom_site_occupancy
  Na  Na0  1  0.50417706  0.50417706  0.00000000  1.0
  Na  Na1  1  0.30599333  0.30599333  0.50000000  1.0
  Na  Na2  1  0.11247302  0.88752698  0.75000000  1.0
  Na  Na3  1  0.18899894  0.81100106  0.25000000  1.0
  Cl  Cl4  1  0.72951232  0.72951232  0.00000000  1.0
  Cl  Cl5  1  0.97944272  0.97944272  0.50000000  1.0
  Cl  Cl6  1  0.69954356  0.30045644  0.75000000  1.0
  Cl  Cl7  1  0.67382700  0.32617300  0.25000000  1.0
