# generated using pymatgen
data_NaCl
_symmetry_space_group_name_H-M   'P 1'
_cell_length_a   4.39913995
_cell_length_b   12.37017296
_cell_length_c   6.62051436
_cell_angle_alpha   90.00000000
_cell_angle_beta   56.12962602
_cell_angle_gamma   90.00000000
_symmetry_Int_Tables_number   1
_chemical_formula_structural   NaCl
_chemical_formula_sum   'Na4 Cl4'
_cell_volume   299.13733310
_cell_formula_units_Z   4
loop_
 _symmetry_equiv_pos_site_id
 _symmetry_equiv_pos_as_xyz
  1  'x, y, z'
loop_
 _atom_site_type_symbol
 _atom_site_label
 _atom_site_symmetry_multiplicity
 _atom_site_fract_x
 _atom_site_fract_y
 _atom_site_fract_z
 _atom_site_occupancy
  Na  Na0  1  0.50507836  0.36078700  0.24527395  1.0
  Na  Na1  1  0.44891179  0.23477036  0.74554805  1.0
  Na  Na2  1  0.64217069  0.94936183  0.68009772  1.0
  Na  Na3  1  0.74280654  0.08683781  0.76102565  1.0
  Cl  Cl4  1  0.66024277  0.23114543  0.78528118  1.0
  Cl  Cl5  1  0.90818134  0.47244004  0.15705340  1.0
  Cl  Cl6  1  0.01967961  0.93674483  0.68849347  1.0
  Cl  Cl7  1  0.23635962  0.94326291  0.29768714  1.0
