# generated using pymatgen
data_NaCl
_symmetry_space_group_name_H-M   'P 1'
_cell_length_a   7.83640016
_cell_length_b   7.83640016
_cell_length_c   5.53939762
_cell_angle_alpha   90.00000000
_cell_angle_beta   90.00000000
_cell_angle_gamma   90.00000000
_symmetry_Int_Tables_number   1
_chemical_formula_structural   NaCl
_chemical_formula_sum   'Na4 Cl4'
_cell_volume   340.16979612
_cell_formula_units_Z   4
loop_
 _symmetry_equiv_pos_site_id
 _symmetry_equiv_pos_as_xyz
  1  'x, y, z'
loop_
 _atom_site_type_symbol
 _atom_site_label
 _atom_site_symmetry_multiplicity
 _atom_site_fract_x
 _atom_site_fract_y
 _atom_site_fract_z
 _atom_site_occupancy
  Na  Na0  1  0.35398815  0.35398815  0.09395547  1.0
  Na  Na1  1  0.13996766  0.13996766  0.48183434  1.0
  Na  Na2  1  0.22115315  0.77884685  0.96680412  1.0
  Na  Na3  1  0.12654544  0.87345456  0.73183686  1.0
  Cl  Cl4  1  0.91066680  0.91066680  0.99866861  1.0
  Cl  Cl5  1  0.95747975  0.95747975  0.44623078  1.0
  Cl  Cl6  1  0.79496620  0.20503380  0.79323569  1.0
  Cl  Cl7  1  0.56665597  0.43334403  0.25479145  1.0
