# generated using pymatgen
data_NaCl
_symmetry_space_group_name_H-M   'P 1'
_cell_length_a   5.64503813
_cell_length_b   5.64503813
_cell_length_c   11.76277112
_cell_angle_alpha   90.00000000
_cell_angle_beta   90.00000000
_cell_angle_gamma   90.00000000
_symmetry_Int_Tables_number   1
_chemical_formula_structural   NaCl
_chemical_formula_sum   'Na4 Cl4'
_cell_volume   374.83782232
_cell_formula_units_Z   4
loop_
 _symmetry_equiv_pos_site_id
 _symmetry_equiv_pos_as_xyz
  1  'x, y, z'
loop_
 _atom_site_type_symbol
 _atom_site_label
 _atom_site_symmetry_multiplicity
 _atom_site_fract_x
 _atom_site_fract_y
 _atom_site_fract_z
 _atom_site_occupancy
  Na  Na0  1  0.55637732  0.55637732  0.07480452  1.0
  Na  Na1  1  0.30599412  0.30599412  0.82522572  1.0
  Na  Na2  1  0.62550883  0.37449117  0.96699141  1.0
  Na  Na3  1  0.75845371  0.24154629  0.87077808  1.0
  Cl  Cl4  1  0.00000000  0.00000000  0.98251235  1.0
  Cl  Cl5  1  0.00000000  0.00000000  0.82478050  1.0
  Cl  Cl6  1  0.50000000  0.50000000  0.52907852  1.0
  Cl  Cl7  1  0.50000000  0.50000000  0.23389848  1.0
