# generated using pymatgen
data_NaCl
_symmetry_space_group_name_H-M   'P 1'
_cell_length_a   7.08690777
_cell_length_b   9.64862339
_cell_length_c   3.10040553
_cell_angle_alpha   90.00000000
_cell_angle_beta   34.40151587
_cell_angle_gamma   90.00000000
_symmetry_Int_Tables_number   1
_chemical_formula_structural   NaCl
_chemical_formula_sum   'Na4 Cl4'
_cell_volume   119.77895037
_cell_formula_units_Z   4
loop_
 _symmetry_equiv_pos_site_id
 _symmetry_equiv_pos_as_xyz
  1  'x, y, z'
loop_
 _atom_site_type_symbol
 _atom_site_label
 _atom_site_symmetry_multiplicity
 _atom_site_fract_x
 _atom_site_fract_y
 _atom_site_fract_z
 _atom_site_occupancy
  Na  Na0  1  0.53936932  0.39581701  0.36585009  1.0
  Na  Na1  1  0.51266049  0.04137673  0.95590208  1.0
  Na  Na2  1  0.86069858  0.53817209  0.41987602  1.0
  Na  Na3  1  0.02875480  0.95847730  0.92238800  1.0
  Cl  Cl4  1  0.73616466  0.05062574  0.81524914  1.0
  Cl  Cl5  1  0.10607400  0.12053388  0.96807377  1.0
  Cl  Cl6  1  0.15665195  0.61618367  0.49489323  1.0
  Cl  Cl7  1  0.60814506  0.99759069  0.19792544  1.0
