# generated using pymatgen
data_NaCl
_symmetry_space_group_name_H-M   'P 1'
_cell_length_a   5.45369953
_cell_length_b   5.45369953
_cell_length_c   9.73017474
_cell_angle_alpha   90.00000000
_cell_angle_beta   90.00000000
_cell_angle_gamma   120.00000000
_symmetry_Int_Tables_number   1
_chemical_formula_structural   NaCl
_chemical_formula_sum   'Na4 Cl4'
_cell_volume   250.63036421
_cell_formula_units_Z   4
loop_
 _symmetry_equiv_pos_site_id
 _symmetry_equiv_pos_as_xyz
  1  'x, y, z'
loop_
 _atom_site_type_symbol
 _atom_site_label
 _atom_site_symmetry_multiplicity
 _atom_site_fract_x
 _atom_site_fract_y
 _atom_site_fract_z
 _atom_site_occupancy
  Na  Na0  1  0.00000000  0.00000000  0.12682902  1.0
  Na  Na1  1  0.69151172  0.00000000  0.80744362  1.0
  Na  Na2  1  0.00000000  0.36827976  0.39879115  1.0
  Na  Na3  1  0.25180765  0.25180765  0.34149760  1.0
  Cl  Cl4  1  0.00000000  0.00000000  0.84451691  1.0
  Cl  Cl5  1  0.05355174  0.00000000  0.42654365  1.0
  Cl  Cl6  1  0.00000000  0.78605322  0.50431777  1.0
  Cl  Cl7  1  0.67889079  0.67889079  0.74492173  1.0
