# generated using pymatgen
data_NaCl
_symmetry_space_group_name_H-M   'P 1'
_cell_length_a   5.18134273
_cell_length_b   9.29271376
_cell_length_c   5.00544799
_cell_angle_alpha   90.00000000
_cell_angle_beta   51.40925648
_cell_angle_gamma   90.00000000
_symmetry_Int_Tables_number   1
_chemical_formula_structural   NaCl
_chemical_formula_sum   'Na4 Cl4'
_cell_volume   188.37540269
_cell_formula_units_Z   4
loop_
 _symmetry_equiv_pos_site_id
 _symmetry_equiv_pos_as_xyz
  1  'x, y, z'
loop_
 _atom_site_type_symbol
 _atom_site_label
 _atom_site_symmetry_multiplicity
 _atom_site_fract_x
 _atom_site_fract_y
 _atom_site_fract_z
 _atom_site_occupancy
  Na  Na0  1  0.50000000  0.41058230  0.50000000  1.0
  Na  Na1  1  0.50000000  0.90294979  0.50000000  1.0
  Na  Na2  1  0.33478924  0.06422703  0.15928588  1.0
  Na  Na3  1  0.38096622  0.60690170  0.67258591  1.0
  Cl  Cl4  1  0.00000000  0.04200253  0.00000000  1.0
  Cl  Cl5  1  0.50000000  0.92917044  0.00000000  1.0
  Cl  Cl6  1  0.65836927  0.03431871  0.39460845  1.0
  Cl  Cl7  1  0.92236523  0.44978896  0.22223684  1.0
