# generated using pymatgen
data_NaCl
_symmetry_space_group_name_H-M   'P 1'
_cell_length_a   7.67085066
_cell_length_b   15.12167744
_cell_length_c   2.93595695
_cell_angle_alpha   90.00000000
_cell_angle_beta   50.78550355
_cell_angle_gamma   90.00000000
_symmetry_Int_Tables_number   1
_chemical_formula_structural   NaCl
_chemical_formula_sum   'Na4 Cl4'
_cell_volume   263.86035038
_cell_formula_units_Z   4
loop_
 _symmetry_equiv_pos_site_id
 _symmetry_equiv_pos_as_xyz
  1  'x, y, z'
loop_
 _atom_site_type_symbol
 _atom_site_label
 _atom_site_symmetry_multiplicity
 _atom_site_fract_x
 _atom_site_fract_y
 _atom_site_fract_z
 _atom_site_occupancy
  Na  Na0  1  0.53330085  0.33538418  0.11259868  1.0
  Na  Na1  1  0.63295636  0.20224404  0.83839286  1.0
  Na  Na2  1  0.21902644  0.00087209  0.40177901  1.0
  Na  Na3  1  0.60051888  0.43285313  0.81638664  1.0
  Cl  Cl4  1  0.72189673  0.60396515  0.80339226  1.0
  Cl  Cl5  1  0.08402253  0.10009580  0.90347094  1.0
  Cl  Cl6  1  0.81655534  0.08141571  0.51305871  1.0
  Cl  Cl7  1  0.18371673  0.68613832  0.07415676  1.0
