# generated using pymatgen
data_NaCl
_symmetry_space_group_name_H-M   'P 1'
_cell_length_a   3.75968609
_cell_length_b   3.75968609
_cell_length_c   11.09951315
_cell_angle_alpha   90.00000000
_cell_angle_beta   90.00000000
_cell_angle_gamma   90.00000000
_symmetry_Int_Tables_number   1
_chemical_formula_structural   NaCl
_chemical_formula_sum   'Na4 Cl4'
_cell_volume   156.89427666
_cell_formula_units_Z   4
loop_
 _symmetry_equiv_pos_site_id
 _symmetry_equiv_pos_as_xyz
  1  'x, y, z'
loop_
 _atom_site_type_symbol
 _atom_site_label
 _atom_site_symmetry_multiplicity
 _atom_site_fract_x
 _atom_site_fract_y
 _atom_site_fract_z
 _atom_site_occupancy
  Na  Na0  1  0.44941857  0.39073218  0.05427366  1.0
  Na  Na1  1  0.33553863  0.07205304  0.33122760  1.0
  Na  Na2  1  0.98504638  0.43410152  0.42240078  1.0
  Na  Na3  1  0.63245196  0.20186182  0.45622087  1.0
  Cl  Cl4  1  0.72905784  0.02013325  0.80972765  1.0
  Cl  Cl5  1  0.92276957  0.12810835  0.82902681  1.0
  Cl  Cl6  1  0.89578818  0.71203006  0.17305780  1.0
  Cl  Cl7  1  0.46107955  0.67430285  0.97177287  1.0
