# generated using pymatgen
data_NaCl
_symmetry_space_group_name_H-M   'P 1'
_cell_length_a   5.76226048
_cell_length_b   17.44330130
_cell_length_c   2.55585916
_cell_angle_alpha   90.00000000
_cell_angle_beta   90.00000000
_cell_angle_gamma   90.00000000
_symmetry_Int_Tables_number   1
_chemical_formula_structural   NaCl
_chemical_formula_sum   'Na4 Cl4'
_cell_volume   256.89667744
_cell_formula_units_Z   4
loop_
 _symmetry_equiv_pos_site_id
 _symmetry_equiv_pos_as_xyz
  1  'x, y, z'
loop_
 _atom_site_type_symbol
 _atom_site_label
 _atom_site_symmetry_multiplicity
 _atom_site_fract_x
 _atom_site_fract_y
 _atom_site_fract_z
 _atom_site_occupancy
  Na  Na0  1  0.00000000  0.39266852  0.17614787  1.0
  Na  Na1  1  0.00000000  0.30068694  0.73353944  1.0
  Na  Na2  1  0.50000000  0.62596041  0.91856693  1.0
  Na  Na3  1  0.50000000  0.05762748  0.82253143  1.0
  Cl  Cl4  1  0.84021438  0.00000000  0.80276643  1.0
  Cl  Cl5  1  0.90222225  0.00000000  0.38891888  1.0
  Cl  Cl6  1  0.37203512  0.50000000  0.85907683  1.0
  Cl  Cl7  1  0.22047851  0.50000000  0.04075229  1.0
