# generated using pymatgen
data_NaCl
_symmetry_space_group_name_H-M   'P 1'
_cell_length_a   3.06874836
_cell_length_b   8.05586765
_cell_length_c   15.28069552
_cell_angle_alpha   90.00000000
_cell_angle_beta   90.00000000
_cell_angle_gamma   90.00000000
_symmetry_Int_Tables_number   1
_chemical_formula_structural   NaCl
_chemical_formula_sum   'Na4 Cl4'
_cell_volume   377.76065442
_cell_formula_units_Z   4
loop_
 _symmetry_equiv_pos_site_id
 _symmetry_equiv_pos_as_xyz
  1  'x, y, z'
loop_
 _atom_site_type_symbol
 _atom_site_label
 _atom_site_symmetry_multiplicity
 _atom_site_fract_x
 _atom_site_fract_y
 _atom_site_fract_z
 _atom_site_occupancy
  Na  Na0  1  0.25000000  0.32394013  0.15618160  1.0
  Na  Na1  1  0.75000000  0.41679088  0.76304122  1.0
  Na  Na2  1  0.25000000  0.63874994  0.81651639  1.0
  Na  Na3  1  0.75000000  0.05974438  0.87970713  1.0
  Cl  Cl4  1  0.25000000  0.23498558  0.83032596  1.0
  Cl  Cl5  1  0.75000000  0.04369837  0.54803782  1.0
  Cl  Cl6  1  0.25000000  0.62124973  0.93802986  1.0
  Cl  Cl7  1  0.75000000  0.09259312  0.30102106  1.0
