# generated using pymatgen
data_NaCl
_symmetry_space_group_name_H-M   'P 1'
_cell_length_a   6.34025992
_cell_length_b   6.34025992
_cell_length_c   6.34025992
_cell_angle_alpha   90.00000000
_cell_angle_beta   90.00000000
_cell_angle_gamma   90.00000000
_symmetry_Int_Tables_number   1
_chemical_formula_structural   NaCl
_chemical_formula_sum   'Na4 Cl4'
_cell_volume   254.87144821
_cell_formula_units_Z   4
loop_
 _symmetry_equiv_pos_site_id
 _symmetry_equiv_pos_as_xyz
  1  'x, y, z'
loop_
 _atom_site_type_symbol
 _atom_site_label
 _atom_site_symmetry_multiplicity
 _atom_site_fract_x
 _atom_site_fract_y
 _atom_site_fract_z
 _atom_site_occupancy
  Na  Na0  1  0.68422177  0.68422177  0.68422177  1.0
  Na  Na1  1  0.98078189  0.48078189  0.01921811  1.0
  Na  Na2  1  0.36721444  0.13278556  0.86721444  1.0
  Na  Na3  1  0.46955199  0.53044801  0.03044801  1.0
  Cl  Cl4  1  0.20306111  0.20306111  0.20306111  1.0
  Cl  Cl5  1  0.46584819  0.96584819  0.53415181  1.0
  Cl  Cl6  1  0.57928085  0.92071915  0.07928085  1.0
  Cl  Cl7  1  0.57084570  0.42915430  0.92915430  1.0
