# generated using pymatgen
data_NaCl
_symmetry_space_group_name_H-M   'P 1'
_cell_length_a   6.21995160
_cell_length_b   6.21995160
_cell_length_c   6.21995160
_cell_angle_alpha   90.00000000
_cell_angle_beta   90.00000000
_cell_angle_gamma   90.00000000
_symmetry_Int_Tables_number   1
_chemical_formula_structural   NaCl
_chemical_formula_sum   'Na4 Cl4'
_cell_volume   240.63623049
_cell_formula_units_Z   4
loop_
 _symmetry_equiv_pos_site_id
 _symmetry_equiv_pos_as_xyz
  1  'x, y, z'
loop_
 _atom_site_type_symbol
 _atom_site_label
 _atom_site_symmetry_multiplicity
 _atom_site_fract_x
 _atom_site_fract_y
 _atom_site_fract_z
 _atom_site_occupancy
  Na  Na0  1  0.73328711  0.73328711  0.73328711  1.0
  Na  Na1  1  0.03882986  0.53882986  0.96117014  1.0
  Na  Na2  1  0.35505779  0.14494221  0.85505779  1.0
  Na  Na3  1  0.41115517  0.58884483  0.08884483  1.0
  Cl  Cl4  1  0.31947593  0.31947593  0.31947593  1.0
  Cl  Cl5  1  0.34971149  0.84971149  0.65028851  1.0
  Cl  Cl6  1  0.47353936  0.02646064  0.97353936  1.0
  Cl  Cl7  1  0.27031560  0.72968440  0.22968440  1.0
