# generated using pymatgen
data_NaCl
_symmetry_space_group_name_H-M   'P 1'
_cell_length_a   6.30201658
_cell_length_b   6.30201658
_cell_length_c   6.30201658
_cell_angle_alpha   90.00000000
_cell_angle_beta   90.00000000
_cell_angle_gamma   90.00000000
_symmetry_Int_Tables_number   1
_chemical_formula_structural   NaCl
_chemical_formula_sum   'Na4 Cl4'
_cell_volume   250.28719105
_cell_formula_units_Z   4
loop_
 _symmetry_equiv_pos_site_id
 _symmetry_equiv_pos_as_xyz
  1  'x, y, z'
loop_
 _atom_site_type_symbol
 _atom_site_label
 _atom_site_symmetry_multiplicity
 _atom_site_fract_x
 _atom_site_fract_y
 _atom_site_fract_z
 _atom_site_occupancy
  Na  Na0  1  0.68887967  0.68887967  0.68887967  1.0
  Na  Na1  1  0.19671333  0.69671333  0.80328667  1.0
  Na  Na2  1  0.31347790  0.18652210  0.81347790  1.0
  Na  Na3  1  0.33355610  0.66644390  0.16644390  1.0
  Cl  Cl4  1  0.92218531  0.92218531  0.92218531  1.0
  Cl  Cl5  1  0.95618734  0.45618734  0.04381266  1.0
  Cl  Cl6  1  0.60294252  0.89705748  0.10294252  1.0
  Cl  Cl7  1  0.56608120  0.43391880  0.93391880  1.0
