# generated using pymatgen
data_NaCl
_symmetry_space_group_name_H-M   'P 1'
_cell_length_a   5.11593428
_cell_length_b   5.11593428
_cell_length_c   5.11593428
_cell_angle_alpha   90.00000000
_cell_angle_beta   90.00000000
_cell_angle_gamma   90.00000000
_symmetry_Int_Tables_number   1
_chemical_formula_structural   NaCl
_chemical_formula_sum   'Na4 Cl4'
_cell_volume   133.89824060
_cell_formula_units_Z   4
loop_
 _symmetry_equiv_pos_site_id
 _symmetry_equiv_pos_as_xyz
  1  'x, y, z'
loop_
 _atom_site_type_symbol
 _atom_site_label
 _atom_site_symmetry_multiplicity
 _atom_site_fract_x
 _atom_site_fract_y
 _atom_site_fract_z
 _atom_site_occupancy
  Na  Na0  1  0.82704238  0.82704238  0.82704238  1.0
  Na  Na1  1  0.87985493  0.37985493  0.12014507  1.0
  Na  Na2  1  0.29550713  0.20449287  0.79550713  1.0
  Na  Na3  1  0.37295460  0.62704540  0.12704540  1.0
  Cl  Cl4  1  0.48410922  0.48410922  0.48410922  1.0
  Cl  Cl5  1  0.00573251  0.50573251  0.99426749  1.0
  Cl  Cl6  1  0.54946657  0.95053343  0.04946657  1.0
  Cl  Cl7  1  0.81421080  0.18578920  0.68578920  1.0
