# generated using pymatgen
data_NaCl
_symmetry_space_group_name_H-M   'P 1'
_cell_length_a   5.14220280
_cell_length_b   5.56611666
_cell_length_c   23.63360888
_cell_angle_alpha   90.00000000
_cell_angle_beta   20.07593658
_cell_angle_gamma   90.00000000
_symmetry_Int_Tables_number   1
_chemical_formula_structural   NaCl
_chemical_formula_sum   'Na4 Cl4'
_cell_volume   232.19956372
_cell_formula_units_Z   4
loop_
 _symmetry_equiv_pos_site_id
 _symmetry_equiv_pos_as_xyz
  1  'x, y, z'
loop_
 _atom_site_type_symbol
 _atom_site_label
 _atom_site_symmetry_multiplicity
 _atom_site_fract_x
 _atom_site_fract_y
 _atom_site_fract_z
 _atom_site_occupancy
  Na  Na0  1  0.98035514  0.45888423  0.49479694  1.0
  Na  Na1  1  0.26052053  0.39695529  0.97274976  1.0
  Na  Na2  1  0.63471423  0.51386994  0.12300204  1.0
  Na  Na3  1  0.48830200  0.26508128  0.41633980  1.0
  Cl  Cl4  1  0.63264757  0.68113470  0.85476030  1.0
  Cl  Cl5  1  0.65599396  0.86625107  0.77842035  1.0
  Cl  Cl6  1  0.71826321  0.35964983  0.23316499  1.0
  Cl  Cl7  1  0.99813921  0.98681416  0.92925144  1.0
