# generated using pymatgen
data_NaCl
_symmetry_space_group_name_H-M   'P 1'
_cell_length_a   5.90048244
_cell_length_b   12.39649280
_cell_length_c   5.64546074
_cell_angle_alpha   90.00000000
_cell_angle_beta   52.08796194
_cell_angle_gamma   90.00000000
_symmetry_Int_Tables_number   1
_chemical_formula_structural   NaCl
_chemical_formula_sum   'Na4 Cl4'
_cell_volume   325.79017369
_cell_formula_units_Z   4
loop_
 _symmetry_equiv_pos_site_id
 _symmetry_equiv_pos_as_xyz
  1  'x, y, z'
loop_
 _atom_site_type_symbol
 _atom_site_label
 _atom_site_symmetry_multiplicity
 _atom_site_fract_x
 _atom_site_fract_y
 _atom_site_fract_z
 _atom_site_occupancy
  Na  Na0  1  0.73466564  0.88172339  0.36671881  1.0
  Na  Na1  1  0.62772239  0.57038339  0.51515423  1.0
  Na  Na2  1  0.76850754  0.16949603  0.70827129  1.0
  Na  Na3  1  0.73051420  0.43955257  0.07810810  1.0
  Cl  Cl4  1  0.22645629  0.85466756  0.72774768  1.0
  Cl  Cl5  1  0.47991229  0.64538720  0.71604691  1.0
  Cl  Cl6  1  0.46801527  0.70969723  0.46132613  1.0
  Cl  Cl7  1  0.27048718  0.12239637  0.65570868  1.0
