# generated using pymatgen
data_NaCl
_symmetry_space_group_name_H-M   'P 1'
_cell_length_a   5.54741789
_cell_length_b   4.18192964
_cell_length_c   17.15109861
_cell_angle_alpha   90.00000000
_cell_angle_beta   90.00000000
_cell_angle_gamma   90.00000000
_symmetry_Int_Tables_number   1
_chemical_formula_structural   NaCl
_chemical_formula_sum   'Na4 Cl4'
_cell_volume   397.88681535
_cell_formula_units_Z   4
loop_
 _symmetry_equiv_pos_site_id
 _symmetry_equiv_pos_as_xyz
  1  'x, y, z'
loop_
 _atom_site_type_symbol
 _atom_site_label
 _atom_site_symmetry_multiplicity
 _atom_site_fract_x
 _atom_site_fract_y
 _atom_site_fract_z
 _atom_site_occupancy
  Na  Na0  1  0.00000000  0.33515967  0.70774677  1.0
  Na  Na1  1  0.50000000  0.14411219  0.69925434  1.0
  Na  Na2  1  0.00000000  0.52608946  0.62486323  1.0
  Na  Na3  1  0.50000000  0.10213131  0.05181848  1.0
  Cl  Cl4  1  0.53357756  0.48262558  0.85861993  1.0
  Cl  Cl5  1  0.92634210  0.05662180  0.03948753  1.0
  Cl  Cl6  1  0.13353145  0.65271973  0.52265213  1.0
  Cl  Cl7  1  0.93462973  0.28128222  0.16001841  1.0
