# generated using pymatgen
data_NaCl
_symmetry_space_group_name_H-M   'P 1'
_cell_length_a   4.85432176
_cell_length_b   4.85432176
_cell_length_c   4.85432176
_cell_angle_alpha   90.00000000
_cell_angle_beta   90.00000000
_cell_angle_gamma   90.00000000
_symmetry_Int_Tables_number   1
_chemical_formula_structural   NaCl
_chemical_formula_sum   'Na4 Cl4'
_cell_volume   114.38937264
_cell_formula_units_Z   4
loop_
 _symmetry_equiv_pos_site_id
 _symmetry_equiv_pos_as_xyz
  1  'x, y, z'
loop_
 _atom_site_type_symbol
 _atom_site_label
 _atom_site_symmetry_multiplicity
 _atom_site_fract_x
 _atom_site_fract_y
 _atom_site_fract_z
 _atom_site_occupancy
  Na  Na0  1  0.90701610  0.90701610  0.90701610  1.0
  Na  Na1  1  0.80333361  0.30333361  0.19666639  1.0
  Na  Na2  1  0.21250756  0.28749244  0.71250756  1.0
  Na  Na3  1  0.10086057  0.89913943  0.39913943  1.0
  Cl  Cl4  1  0.54187900  0.54187900  0.54187900  1.0
  Cl  Cl5  1  0.13508581  0.63508581  0.86491419  1.0
  Cl  Cl6  1  0.47586514  0.02413486  0.97586514  1.0
  Cl  Cl7  1  0.59407161  0.40592839  0.90592839  1.0
