# generated using pymatgen
data_NaCl
_symmetry_space_group_name_H-M   'P 1'
_cell_length_a   5.85439685
_cell_length_b   5.85439685
_cell_length_c   5.85439685
_cell_angle_alpha   90.00000000
_cell_angle_beta   90.00000000
_cell_angle_gamma   90.00000000
_symmetry_Int_Tables_number   1
_chemical_formula_structural   NaCl
_chemical_formula_sum   'Na4 Cl4'
_cell_volume   200.65337796
_cell_formula_units_Z   4
loop_
 _symmetry_equiv_pos_site_id
 _symmetry_equiv_pos_as_xyz
  1  'x, y, z'
loop_
 _atom_site_type_symbol
 _atom_site_label
 _atom_site_symmetry_multiplicity
 _atom_site_fract_x
 _atom_site_fract_y
 _atom_site_fract_z
 _atom_site_occupancy
  Na  Na0  1  0.69931176  0.69931176  0.69931176  1.0
  Na  Na1  1  0.19343138  0.69343138  0.80656862  1.0
  Na  Na2  1  0.25642400  0.24357600  0.75642400  1.0
  Na  Na3  1  0.42673887  0.57326113  0.07326113  1.0
  Cl  Cl4  1  0.07536204  0.07536204  0.07536204  1.0
  Cl  Cl5  1  0.45408168  0.95408168  0.54591832  1.0
  Cl  Cl6  1  0.43293177  0.06706823  0.93293177  1.0
  Cl  Cl7  1  0.59624899  0.40375101  0.90375101  1.0
