# generated using pymatgen
data_NaCl
_symmetry_space_group_name_H-M   'P 1'
_cell_length_a   5.11510892
_cell_length_b   5.11510892
_cell_length_c   6.27453836
_cell_angle_alpha   90.00000000
_cell_angle_beta   90.00000000
_cell_angle_gamma   90.00000000
_symmetry_Int_Tables_number   1
_chemical_formula_structural   NaCl
_chemical_formula_sum   'Na4 Cl4'
_cell_volume   164.16915037
_cell_formula_units_Z   4
loop_
 _symmetry_equiv_pos_site_id
 _symmetry_equiv_pos_as_xyz
  1  'x, y, z'
loop_
 _atom_site_type_symbol
 _atom_site_label
 _atom_site_symmetry_multiplicity
 _atom_site_fract_x
 _atom_site_fract_y
 _atom_site_fract_z
 _atom_site_occupancy
  Na  Na0  1  0.75640743  0.47840833  0.59229557  1.0
  Na  Na1  1  0.35464139  0.25490960  0.86275434  1.0
  Na  Na2  1  0.15793491  0.32609626  0.48433938  1.0
  Na  Na3  1  0.28075203  0.77328739  0.87604282  1.0
  Cl  Cl4  1  0.19827987  0.10306822  0.23944132  1.0
  Cl  Cl5  1  0.48405432  0.17276040  0.22056190  1.0
  Cl  Cl6  1  0.81842891  0.86321892  0.84006649  1.0
  Cl  Cl7  1  0.44252976  0.80761452  0.68680474  1.0
