# generated using pymatgen
data_NaCl
_symmetry_space_group_name_H-M   'P 1'
_cell_length_a   6.42806408
_cell_length_b   6.93936390
_cell_length_c   12.42035640
_cell_angle_alpha   90.00000000
_cell_angle_beta   90.00000000
_cell_angle_gamma   90.00000000
_symmetry_Int_Tables_number   1
_chemical_formula_structural   NaCl
_chemical_formula_sum   'Na4 Cl4'
_cell_volume   554.03081202
_cell_formula_units_Z   4
loop_
 _symmetry_equiv_pos_site_id
 _symmetry_equiv_pos_as_xyz
  1  'x, y, z'
loop_
 _atom_site_type_symbol
 _atom_site_label
 _atom_site_symmetry_multiplicity
 _atom_site_fract_x
 _atom_site_fract_y
 _atom_site_fract_z
 _atom_site_occupancy
  Na  Na0  1  0.00000000  0.00000000  0.44479070  1
  Na  Na1  1  0.00000000  0.50000000  1.13516675  1
  Na  Na2  1  0.50000000  0.00000000  1.02062864  1
  Na  Na3  1  0.50000000  0.50000000  0.28170940  1
  Cl  Cl4  1  0.00000000  0.00000000  0.16843730  1
  Cl  Cl5  1  0.00000000  0.50000000  1.22368564  1
  Cl  Cl6  1  0.50000000  0.00000000  0.98523348  1
  Cl  Cl7  1  0.50000000  0.50000000  0.20684838  1
