# generated using pymatgen
data_NaCl
_symmetry_space_group_name_H-M   'P 1'
_cell_length_a   4.48089572
_cell_length_b   15.47069630
_cell_length_c   22.26936800
_cell_angle_alpha   90.00000000
_cell_angle_beta   84.71488166
_cell_angle_gamma   90.00000000
_symmetry_Int_Tables_number   1
_chemical_formula_structural   NaCl
_chemical_formula_sum   'Na4 Cl4'
_cell_volume   1537.20687845
_cell_formula_units_Z   4
loop_
 _symmetry_equiv_pos_site_id
 _symmetry_equiv_pos_as_xyz
  1  'x, y, z'
loop_
 _atom_site_type_symbol
 _atom_site_label
 _atom_site_symmetry_multiplicity
 _atom_site_fract_x
 _atom_site_fract_y
 _atom_site_fract_z
 _atom_site_occupancy
  Na  Na0  1  0.00000000  0.00000000  0.00000000  1
  Na  Na1  1  0.00000000  0.50000000  0.50000000  1
  Na  Na2  1  0.50000000  0.00000000  0.00000000  1
  Na  Na3  1  0.50000000  0.50000000  0.50000000  1
  Cl  Cl4  1  0.21603395  0.71115098  0.73547539  1
  Cl  Cl5  1  -0.41782284  1.20380205  0.26766338  1
  Cl  Cl6  1  -0.43554989  -0.64871157  -0.60247173  1
  Cl  Cl7  1  0.69351169  -0.18147213  0.60041810  1
