# generated using pymatgen
data_NaCl
_symmetry_space_group_name_H-M   'P 1'
_cell_length_a   4.71982794
_cell_length_b   8.12113507
_cell_length_c   9.94979399
_cell_angle_alpha   90.00000000
_cell_angle_beta   96.67670155
_cell_angle_gamma   90.00000000
_symmetry_Int_Tables_number   1
_chemical_formula_structural   NaCl
_chemical_formula_sum   'Na4 Cl4'
_cell_volume   378.79267771
_cell_formula_units_Z   4
loop_
 _symmetry_equiv_pos_site_id
 _symmetry_equiv_pos_as_xyz
  1  'x, y, z'
loop_
 _atom_site_type_symbol
 _atom_site_label
 _atom_site_symmetry_multiplicity
 _atom_site_fract_x
 _atom_site_fract_y
 _atom_site_fract_z
 _atom_site_occupancy
  Na  Na0  1  0.06767273  0.54315288  0.46038139  1.0
  Na  Na1  1  0.63551982  0.46426350  0.24263006  1.0
  Na  Na2  1  0.33841894  0.60074907  0.52140661  1.0
  Na  Na3  1  0.93484109  0.89584109  0.74193020  1.0
  Cl  Cl4  1  0.27608208  0.50166535  0.19424930  1.0
  Cl  Cl5  1  0.63641673  0.98001154  0.33932569  1.0
  Cl  Cl6  1  0.00494655  0.92095590  0.44367933  1.0
  Cl  Cl7  1  0.64541599  0.68760059  0.54919797  1.0
