# generated using pymatgen
data_NaCl
_symmetry_space_group_name_H-M   'P 1'
_cell_length_a   6.97176229
_cell_length_b   2.44899949
_cell_length_c   16.58402222
_cell_angle_alpha   90.00000000
_cell_angle_beta   90.00000000
_cell_angle_gamma   90.00000000
_symmetry_Int_Tables_number   1
_chemical_formula_structural   NaCl
_chemical_formula_sum   'Na4 Cl4'
_cell_volume   283.15297996
_cell_formula_units_Z   4
loop_
 _symmetry_equiv_pos_site_id
 _symmetry_equiv_pos_as_xyz
  1  'x, y, z'
loop_
 _atom_site_type_symbol
 _atom_site_label
 _atom_site_symmetry_multiplicity
 _atom_site_fract_x
 _atom_site_fract_y
 _atom_site_fract_z
 _atom_site_occupancy
  Na  Na0  1  0.05327120  0.86095295  0.36336015  1.0
  Na  Na1  1  0.46077636  0.52354110  0.18356855  1.0
  Na  Na2  1  0.19770532  0.93708599  0.59416398  1.0
  Na  Na3  1  0.20210147  0.92935201  0.51308428  1.0
  Cl  Cl4  1  0.38286051  0.44344333  0.42054275  1.0
  Cl  Cl5  1  0.48450196  0.93283464  0.78887900  1.0
  Cl  Cl6  1  0.95900918  0.54471260  0.76661270  1.0
  Cl  Cl7  1  0.48033997  0.38370272  0.79332539  1.0
