# generated using pymatgen
data_NaCl
_symmetry_space_group_name_H-M   'P 1'
_cell_length_a   6.22197779
_cell_length_b   6.22197779
_cell_length_c   7.82633847
_cell_angle_alpha   90.00000000
_cell_angle_beta   90.00000000
_cell_angle_gamma   90.00000000
_symmetry_Int_Tables_number   1
_chemical_formula_structural   NaCl
_chemical_formula_sum   'Na4 Cl4'
_cell_volume   302.98110082
_cell_formula_units_Z   4
loop_
 _symmetry_equiv_pos_site_id
 _symmetry_equiv_pos_as_xyz
  1  'x, y, z'
loop_
 _atom_site_type_symbol
 _atom_site_label
 _atom_site_symmetry_multiplicity
 _atom_site_fract_x
 _atom_site_fract_y
 _atom_site_fract_z
 _atom_site_occupancy
  Na  Na0  1  0.02954049  0.23356481  0.47225832  1.0
  Na  Na1  1  0.13690583  0.40208381  0.28278856  1.0
  Na  Na2  1  0.92008500  0.78069673  0.28150296  1.0
  Na  Na3  1  0.68325232  0.61363252  0.38590258  1.0
  Cl  Cl4  1  0.53129211  0.55682897  0.11674474  1.0
  Cl  Cl5  1  0.35286320  0.94489098  0.25871740  1.0
  Cl  Cl6  1  0.59760640  0.22601099  0.14503626  1.0
  Cl  Cl7  1  0.14235299  0.90652197  0.39015169  1.0
