# generated using pymatgen
data_NaCl
_symmetry_space_group_name_H-M   'P 1'
_cell_length_a   3.87549435
_cell_length_b   4.93610287
_cell_length_c   16.54431994
_cell_angle_alpha   90.00000000
_cell_angle_beta   90.00000000
_cell_angle_gamma   90.00000000
_symmetry_Int_Tables_number   1
_chemical_formula_structural   NaCl
_chemical_formula_sum   'Na4 Cl4'
_cell_volume   316.49017324
_cell_formula_units_Z   4
loop_
 _symmetry_equiv_pos_site_id
 _symmetry_equiv_pos_as_xyz
  1  'x, y, z'
loop_
 _atom_site_type_symbol
 _atom_site_label
 _atom_site_symmetry_multiplicity
 _atom_site_fract_x
 _atom_site_fract_y
 _atom_site_fract_z
 _atom_site_occupancy
  Na  Na0  1  0.25000000  0.49530750  0.00000000  1.0
  Na  Na1  1  0.25000000  0.07020721  0.50000000  1.0
  Na  Na2  1  0.75000000  0.73332209  0.50000000  1.0
  Na  Na3  1  0.75000000  0.96973124  0.00000000  1.0
  Cl  Cl4  1  0.25114073  0.00000000  0.25000000  1.0
  Cl  Cl5  1  0.49961527  0.00000000  0.75000000  1.0
  Cl  Cl6  1  0.18520806  0.50000000  0.75000000  1.0
  Cl  Cl7  1  0.48265318  0.50000000  0.25000000  1.0
