# generated using pymatgen
data_NaCl
_symmetry_space_group_name_H-M   'P 1'
_cell_length_a   4.79765663
_cell_length_b   8.81191256
_cell_length_c   13.00994863
_cell_angle_alpha   135.56197785
_cell_angle_beta   101.69798526
_cell_angle_gamma   91.66599934
_symmetry_Int_Tables_number   1
_chemical_formula_structural   NaCl
_chemical_formula_sum   'Na4 Cl4'
_cell_volume   364.76463621
_cell_formula_units_Z   4
loop_
 _symmetry_equiv_pos_site_id
 _symmetry_equiv_pos_as_xyz
  1  'x, y, z'
loop_
 _atom_site_type_symbol
 _atom_site_label
 _atom_site_symmetry_multiplicity
 _atom_site_fract_x
 _atom_site_fract_y
 _atom_site_fract_z
 _atom_site_occupancy
  Na  Na0  1  0.00000000  0.00000000  0.00000000  1.0
  Na  Na1  1  0.00000000  0.50000000  0.50000000  1.0
  Na  Na2  1  0.50000000  0.00000000  0.00000000  1.0
  Na  Na3  1  0.50000000  0.50000000  0.00000000  1.0
  Cl  Cl4  1  0.22741777  0.15282978  0.16330996  1.0
  Cl  Cl5  1  0.25452707  0.83149628  0.27207805  1.0
  Cl  Cl6  1  0.80805803  0.47885657  0.63772023  1.0
  Cl  Cl7  1  0.95083341  0.54812858  0.30159155  1.0
