# generated using pymatgen
data_NaCl
_symmetry_space_group_name_H-M   'P 1'
_cell_length_a   4.26920152
_cell_length_b   12.72137055
_cell_length_c   9.52383794
_cell_angle_alpha   90.00000000
_cell_angle_beta   43.76476461
_cell_angle_gamma   90.00000000
_symmetry_Int_Tables_number   1
_chemical_formula_structural   NaCl
_chemical_formula_sum   'Na4 Cl4'
_cell_volume   357.77485605
_cell_formula_units_Z   4
loop_
 _symmetry_equiv_pos_site_id
 _symmetry_equiv_pos_as_xyz
  1  'x, y, z'
loop_
 _atom_site_type_symbol
 _atom_site_label
 _atom_site_symmetry_multiplicity
 _atom_site_fract_x
 _atom_site_fract_y
 _atom_site_fract_z
 _atom_site_occupancy
  Na  Na0  1  0.29636869  0.00000000  0.13189206  1.0
  Na  Na1  1  0.41209774  0.50000000  0.39656978  1.0
  Na  Na2  1  0.51424226  0.00000000  0.44046916  1.0
  Na  Na3  1  0.94699799  0.50000000  0.04249707  1.0
  Cl  Cl4  1  0.24220566  0.84723669  0.16716148  1.0
  Cl  Cl5  1  0.24569153  0.34935046  0.67008376  1.0
  Cl  Cl6  1  0.15207378  0.57528123  0.04889331  1.0
  Cl  Cl7  1  0.18993348  0.87810300  0.91671327  1.0
