# generated using pymatgen
data_NaCl
_symmetry_space_group_name_H-M   'P 1'
_cell_length_a   7.96820878
_cell_length_b   7.32479528
_cell_length_c   6.01485857
_cell_angle_alpha   90.00000000
_cell_angle_beta   90.00000000
_cell_angle_gamma   90.00000000
_symmetry_Int_Tables_number   1
_chemical_formula_structural   NaCl
_chemical_formula_sum   'Na4 Cl4'
_cell_volume   351.06021621
_cell_formula_units_Z   4
loop_
 _symmetry_equiv_pos_site_id
 _symmetry_equiv_pos_as_xyz
  1  'x, y, z'
loop_
 _atom_site_type_symbol
 _atom_site_label
 _atom_site_symmetry_multiplicity
 _atom_site_fract_x
 _atom_site_fract_y
 _atom_site_fract_z
 _atom_site_occupancy
  Na  Na0  1  0.33462642  0.23652072  0.38165501  1.0
  Na  Na1  1  0.11034106  0.42788056  0.22647768  1.0
  Na  Na2  1  0.36482957  0.42265855  0.45291092  1.0
  Na  Na3  1  0.06483020  0.33301642  0.80614291  1.0
  Cl  Cl4  1  0.39585790  0.57244972  0.44835751  1.0
  Cl  Cl5  1  0.53494924  0.83662583  0.19181554  1.0
  Cl  Cl6  1  0.20624647  0.04489318  0.49901803  1.0
  Cl  Cl7  1  0.38936238  0.90041496  0.70527762  1.0
