# generated using pymatgen
data_NaCl
_symmetry_space_group_name_H-M   'P 1'
_cell_length_a   6.20424799
_cell_length_b   3.36415150
_cell_length_c   12.45495128
_cell_angle_alpha   90.00000000
_cell_angle_beta   82.01876148
_cell_angle_gamma   90.00000000
_symmetry_Int_Tables_number   1
_chemical_formula_structural   NaCl
_chemical_formula_sum   'Na4 Cl4'
_cell_volume   257.44203817
_cell_formula_units_Z   4
loop_
 _symmetry_equiv_pos_site_id
 _symmetry_equiv_pos_as_xyz
  1  'x, y, z'
loop_
 _atom_site_type_symbol
 _atom_site_label
 _atom_site_symmetry_multiplicity
 _atom_site_fract_x
 _atom_site_fract_y
 _atom_site_fract_z
 _atom_site_occupancy
  Na  Na0  1  0.25286257  0.00000000  0.59670193  1.0
  Na  Na1  1  0.11974315  0.50000000  0.74536035  1.0
  Na  Na2  1  0.63997789  0.00000000  0.47858017  1.0
  Na  Na3  1  0.71999073  0.50000000  0.11168028  1.0
  Cl  Cl4  1  0.38469486  0.00000000  0.31853577  1.0
  Cl  Cl5  1  0.92787691  0.50000000  0.40104557  1.0
  Cl  Cl6  1  0.44867104  0.00000000  0.62530218  1.0
  Cl  Cl7  1  0.67516887  0.50000000  0.73183711  1.0
