# generated using pymatgen
data_NaCl
_symmetry_space_group_name_H-M   'P 1'
_cell_length_a   4.08569402
_cell_length_b   4.05562444
_cell_length_c   8.14726422
_cell_angle_alpha   90.00000000
_cell_angle_beta   86.32115096
_cell_angle_gamma   90.00000000
_symmetry_Int_Tables_number   1
_chemical_formula_structural   NaCl
_chemical_formula_sum   'Na4 Cl4'
_cell_volume   134.72231255
_cell_formula_units_Z   4
loop_
 _symmetry_equiv_pos_site_id
 _symmetry_equiv_pos_as_xyz
  1  'x, y, z'
loop_
 _atom_site_type_symbol
 _atom_site_label
 _atom_site_symmetry_multiplicity
 _atom_site_fract_x
 _atom_site_fract_y
 _atom_site_fract_z
 _atom_site_occupancy
  Na  Na0  1  0.14320861  0.81601581  0.51003947  1.0
  Na  Na1  1  0.33919938  0.18099929  0.21849326  1.0
  Na  Na2  1  0.67449528  0.14033255  0.48295997  1.0
  Na  Na3  1  0.69521291  0.29257639  0.81450610  1.0
  Cl  Cl4  1  0.26457572  0.39123175  0.35908554  1.0
  Cl  Cl5  1  0.54944040  0.51612755  0.90018593  1.0
  Cl  Cl6  1  0.25013645  0.35692991  0.72363006  1.0
  Cl  Cl7  1  0.91055640  0.15672340  0.65302118  1.0
