# generated using pymatgen
data_NaCl
_symmetry_space_group_name_H-M   'P 1'
_cell_length_a   6.70603071
_cell_length_b   6.36756194
_cell_length_c   9.26762341
_cell_angle_alpha   90.00000000
_cell_angle_beta   90.00000000
_cell_angle_gamma   90.00000000
_symmetry_Int_Tables_number   1
_chemical_formula_structural   NaCl
_chemical_formula_sum   'Na4 Cl4'
_cell_volume   395.73739813
_cell_formula_units_Z   4
loop_
 _symmetry_equiv_pos_site_id
 _symmetry_equiv_pos_as_xyz
  1  'x, y, z'
loop_
 _atom_site_type_symbol
 _atom_site_label
 _atom_site_symmetry_multiplicity
 _atom_site_fract_x
 _atom_site_fract_y
 _atom_site_fract_z
 _atom_site_occupancy
  Na  Na0  1  0.08902579  0.28080915  0.47359276  1.0
  Na  Na1  1  0.30965269  0.39358945  0.21053372  1.0
  Na  Na2  1  0.39941090  0.39380333  0.52640967  1.0
  Na  Na3  1  0.07639610  0.19629139  0.69484038  1.0
  Cl  Cl4  1  0.46832363  0.58351286  0.15975576  1.0
  Cl  Cl5  1  0.19947163  0.94844389  0.38018415  1.0
  Cl  Cl6  1  0.72801558  0.11296210  0.40499522  1.0
  Cl  Cl7  1  0.36035178  0.80478671  0.64380290  1.0
