# generated using pymatgen
data_NaCl
_symmetry_space_group_name_H-M   'P 1'
_cell_length_a   5.94919820
_cell_length_b   8.22164318
_cell_length_c   7.67576640
_cell_angle_alpha   90.00000000
_cell_angle_beta   90.00000000
_cell_angle_gamma   90.00000000
_symmetry_Int_Tables_number   1
_chemical_formula_structural   NaCl
_chemical_formula_sum   'Na4 Cl4'
_cell_volume   375.43850470
_cell_formula_units_Z   4
loop_
 _symmetry_equiv_pos_site_id
 _symmetry_equiv_pos_as_xyz
  1  'x, y, z'
loop_
 _atom_site_type_symbol
 _atom_site_label
 _atom_site_symmetry_multiplicity
 _atom_site_fract_x
 _atom_site_fract_y
 _atom_site_fract_z
 _atom_site_occupancy
  Na  Na0  1  0.00000000  0.45207835  0.47219967  1.0
  Na  Na1  1  0.00000000  0.37172583  0.30138032  1.0
  Na  Na2  1  0.50000000  0.65811777  0.52778489  1.0
  Na  Na3  1  0.50000000  0.77753493  0.65534834  1.0
  Cl  Cl4  1  0.00000000  0.68931349  0.13074386  1.0
  Cl  Cl5  1  0.00000000  0.99543178  0.37428930  1.0
  Cl  Cl6  1  0.50000000  0.90011336  0.43329711  1.0
  Cl  Cl7  1  0.50000000  0.21386876  0.71564207  1.0
