# generated using pymatgen
data_NaCl
_symmetry_space_group_name_H-M   'P 1'
_cell_length_a   5.61085435
_cell_length_b   2.02084022
_cell_length_c   14.35755160
_cell_angle_alpha   90.00000000
_cell_angle_beta   90.00000000
_cell_angle_gamma   90.00000000
_symmetry_Int_Tables_number   1
_chemical_formula_structural   NaCl
_chemical_formula_sum   'Na4 Cl4'
_cell_volume   162.79511087
_cell_formula_units_Z   4
loop_
 _symmetry_equiv_pos_site_id
 _symmetry_equiv_pos_as_xyz
  1  'x, y, z'
loop_
 _atom_site_type_symbol
 _atom_site_label
 _atom_site_symmetry_multiplicity
 _atom_site_fract_x
 _atom_site_fract_y
 _atom_site_fract_z
 _atom_site_occupancy
  Na  Na0  1  0.00000000  0.45271488  0.81900437  1.0
  Na  Na1  1  0.00000000  0.47554280  0.06750407  1.0
  Na  Na2  1  0.00000000  0.17401645  0.46514365  1.0
  Na  Na3  1  0.00000000  0.08347990  0.70697359  1.0
  Cl  Cl4  1  0.00000000  0.20654435  0.16248996  1.0
  Cl  Cl5  1  0.00000000  0.79302809  0.93023208  1.0
  Cl  Cl6  1  0.50000000  0.60036784  0.62124177  1.0
  Cl  Cl7  1  0.50000000  0.53707448  0.09543856  1.0
