# generated using pymatgen
data_NaCl
_symmetry_space_group_name_H-M   'P 1'
_cell_length_a   4.33682434
_cell_length_b   6.33735771
_cell_length_c   9.59006641
_cell_angle_alpha   90.00000000
_cell_angle_beta   94.26157805
_cell_angle_gamma   90.00000000
_symmetry_Int_Tables_number   1
_chemical_formula_structural   NaCl
_chemical_formula_sum   'Na4 Cl4'
_cell_volume   262.84472324
_cell_formula_units_Z   4
loop_
 _symmetry_equiv_pos_site_id
 _symmetry_equiv_pos_as_xyz
  1  'x, y, z'
loop_
 _atom_site_type_symbol
 _atom_site_label
 _atom_site_symmetry_multiplicity
 _atom_site_fract_x
 _atom_site_fract_y
 _atom_site_fract_z
 _atom_site_occupancy
  Na  Na0  1  0.42516016  0.00000000  0.50068586  1.0
  Na  Na1  1  0.69770447  0.00000000  0.71516412  1.0
  Na  Na2  1  0.82575526  0.00000000  0.46316469  1.0
  Na  Na3  1  0.49378807  0.00000000  0.26932158  1.0
  Cl  Cl4  1  0.34785214  0.46827293  0.15256702  1.0
  Cl  Cl5  1  0.74269271  0.87304859  0.83243173  1.0
  Cl  Cl6  1  0.15872653  0.47753251  0.70334210  1.0
  Cl  Cl7  1  0.00108528  0.66615317  0.22188008  1.0
