# generated using pymatgen
data_NaCl
_symmetry_space_group_name_H-M   'P 1'
_cell_length_a   4.30014750
_cell_length_b   7.46303733
_cell_length_c   8.41403398
_cell_angle_alpha   90.00000000
_cell_angle_beta   100.66699836
_cell_angle_gamma   90.00000000
_symmetry_Int_Tables_number   1
_chemical_formula_structural   NaCl
_chemical_formula_sum   'Na4 Cl4'
_cell_volume   265.35839711
_cell_formula_units_Z   4
loop_
 _symmetry_equiv_pos_site_id
 _symmetry_equiv_pos_as_xyz
  1  'x, y, z'
loop_
 _atom_site_type_symbol
 _atom_site_label
 _atom_site_symmetry_multiplicity
 _atom_site_fract_x
 _atom_site_fract_y
 _atom_site_fract_z
 _atom_site_occupancy
  Na  Na0  1  0.05388751  0.45300631  0.54990851  1.0
  Na  Na1  1  0.71029172  0.45684948  0.17966126  1.0
  Na  Na2  1  0.75740217  0.16385123  0.54119382  1.0
  Na  Na3  1  0.44041554  0.26542282  0.67353924  1.0
  Cl  Cl4  1  0.31423190  0.43289817  0.23111443  1.0
  Cl  Cl5  1  0.18818491  0.98165695  0.15131799  1.0
  Cl  Cl6  1  0.48800895  0.46902377  0.67836868  1.0
  Cl  Cl7  1  0.02035498  0.77889587  0.64079287  1.0
