# generated using pymatgen
data_NaCl
_symmetry_space_group_name_H-M   'P 1'
_cell_length_a   4.45304260
_cell_length_b   3.26904893
_cell_length_c   14.54576344
_cell_angle_alpha   90.00000000
_cell_angle_beta   90.79873559
_cell_angle_gamma   90.00000000
_symmetry_Int_Tables_number   1
_chemical_formula_structural   NaCl
_chemical_formula_sum   'Na4 Cl4'
_cell_volume   211.72521838
_cell_formula_units_Z   4
loop_
 _symmetry_equiv_pos_site_id
 _symmetry_equiv_pos_as_xyz
  1  'x, y, z'
loop_
 _atom_site_type_symbol
 _atom_site_label
 _atom_site_symmetry_multiplicity
 _atom_site_fract_x
 _atom_site_fract_y
 _atom_site_fract_z
 _atom_site_occupancy
  Na  Na0  1  0.19542898  0.00000000  0.59842996  1.0
  Na  Na1  1  0.20387770  0.00000000  0.72555579  1.0
  Na  Na2  1  0.62362942  0.00000000  0.66622060  1.0
  Na  Na3  1  0.41755099  0.50000000  0.04953465  1.0
  Cl  Cl4  1  0.35565625  0.00000000  0.28046358  1.0
  Cl  Cl5  1  0.49340427  0.00000000  0.02939703  1.0
  Cl  Cl6  1  0.33463327  0.48401848  0.68665343  1.0
  Cl  Cl7  1  0.03534808  0.35999870  0.57923723  1.0
