# generated using pymatgen
data_NaCl
_symmetry_space_group_name_H-M   'P 1'
_cell_length_a   4.37579576
_cell_length_b   4.33512924
_cell_length_c   10.64932434
_cell_angle_alpha   130.98952856
_cell_angle_beta   84.71768942
_cell_angle_gamma   65.57397574
_symmetry_Int_Tables_number   1
_chemical_formula_structural   NaCl
_chemical_formula_sum   'Na4 Cl4'
_cell_volume   117.85447218
_cell_formula_units_Z   4
loop_
 _symmetry_equiv_pos_site_id
 _symmetry_equiv_pos_as_xyz
  1  'x, y, z'
loop_
 _atom_site_type_symbol
 _atom_site_label
 _atom_site_symmetry_multiplicity
 _atom_site_fract_x
 _atom_site_fract_y
 _atom_site_fract_z
 _atom_site_occupancy
  Na  Na0  1  0.00000000  0.00000000  0.00000000  1.0
  Na  Na1  1  0.00000000  0.00000000  0.50000000  1.0
  Na  Na2  1  0.00000000  0.50000000  0.00000000  1.0
  Na  Na3  1  0.50000000  0.50000000  0.50000000  1.0
  Cl  Cl4  1  0.40745521  0.42332348  0.39055974  1.0
  Cl  Cl5  1  0.45725782  0.94991476  0.71087314  1.0
  Cl  Cl6  1  0.18929800  0.37496708  0.63832158  1.0
  Cl  Cl7  1  0.89486347  0.51650168  0.60387768  1.0
