# generated using pymatgen
data_NaCl
_symmetry_space_group_name_H-M   'P 1'
_cell_length_a   3.47076463
_cell_length_b   9.99584165
_cell_length_c   10.86377459
_cell_angle_alpha   90.00000000
_cell_angle_beta   78.06921200
_cell_angle_gamma   90.00000000
_symmetry_Int_Tables_number   1
_chemical_formula_structural   NaCl
_chemical_formula_sum   'Na4 Cl4'
_cell_volume   368.75749012
_cell_formula_units_Z   4
loop_
 _symmetry_equiv_pos_site_id
 _symmetry_equiv_pos_as_xyz
  1  'x, y, z'
loop_
 _atom_site_type_symbol
 _atom_site_label
 _atom_site_symmetry_multiplicity
 _atom_site_fract_x
 _atom_site_fract_y
 _atom_site_fract_z
 _atom_site_occupancy
  Na  Na0  1  0.33886644  0.66604901  0.49365787  1.0
  Na  Na1  1  0.59585372  0.60850416  0.20556050  1.0
  Na  Na2  1  0.20271512  0.67354124  0.30965156  1.0
  Na  Na3  1  0.92423275  0.61088070  0.58663716  1.0
  Cl  Cl4  1  0.27500837  0.46253651  0.23807880  1.0
  Cl  Cl5  1  0.62659609  0.91879827  0.81979279  1.0
  Cl  Cl6  1  0.95145400  0.96229424  0.56557445  1.0
  Cl  Cl7  1  0.50050193  0.75554877  0.91903779  1.0
