# generated using pymatgen
data_NaCl
_symmetry_space_group_name_H-M   'P 1'
_cell_length_a   7.90521725
_cell_length_b   3.84353025
_cell_length_c   11.26867612
_cell_angle_alpha   90.00000000
_cell_angle_beta   74.27191150
_cell_angle_gamma   90.00000000
_symmetry_Int_Tables_number   1
_chemical_formula_structural   NaCl
_chemical_formula_sum   'Na4 Cl4'
_cell_volume   329.56748400
_cell_formula_units_Z   4
loop_
 _symmetry_equiv_pos_site_id
 _symmetry_equiv_pos_as_xyz
  1  'x, y, z'
loop_
 _atom_site_type_symbol
 _atom_site_label
 _atom_site_symmetry_multiplicity
 _atom_site_fract_x
 _atom_site_fract_y
 _atom_site_fract_z
 _atom_site_occupancy
  Na  Na0  1  0.20108447  0.00000000  0.53410915  1.0
  Na  Na1  1  0.63469479  0.00000000  0.65380101  1.0
  Na  Na2  1  0.70302733  0.00000000  0.39911597  1.0
  Na  Na3  1  0.26979303  0.00000000  0.86911490  1.0
  Cl  Cl4  1  0.70153356  0.50133822  0.24178016  1.0
  Cl  Cl5  1  0.63434852  0.91284463  0.12560889  1.0
  Cl  Cl6  1  0.16946981  0.44551616  0.61580528  1.0
  Cl  Cl7  1  0.00025766  0.41190961  0.21400009  1.0
