# generated using pymatgen
data_NaCl
_symmetry_space_group_name_H-M   'P 1'
_cell_length_a   6.65053585
_cell_length_b   3.80152901
_cell_length_c   12.66646258
_cell_angle_alpha   90.00000000
_cell_angle_beta   90.00000000
_cell_angle_gamma   90.00000000
_symmetry_Int_Tables_number   1
_chemical_formula_structural   NaCl
_chemical_formula_sum   'Na4 Cl4'
_cell_volume   320.23610314
_cell_formula_units_Z   4
loop_
 _symmetry_equiv_pos_site_id
 _symmetry_equiv_pos_as_xyz
  1  'x, y, z'
loop_
 _atom_site_type_symbol
 _atom_site_label
 _atom_site_symmetry_multiplicity
 _atom_site_fract_x
 _atom_site_fract_y
 _atom_site_fract_z
 _atom_site_occupancy
  Na  Na0  1  0.00093866  0.77936611  0.39815617  1.0
  Na  Na1  1  0.82930023  0.48069111  0.41867110  1.0
  Na  Na2  1  0.29499118  0.56982428  0.94933728  1.0
  Na  Na3  1  0.98187242  0.65516768  0.75799499  1.0
  Cl  Cl4  1  0.47561967  0.53487115  0.26578676  1.0
  Cl  Cl5  1  0.09172313  0.93795365  0.79850963  1.0
  Cl  Cl6  1  0.50971545  0.89419895  0.79967296  1.0
  Cl  Cl7  1  0.57300784  0.93320984  0.49405172  1.0
