# generated using pymatgen
data_NaCl
_symmetry_space_group_name_H-M   'P 1'
_cell_length_a   6.04845386
_cell_length_b   3.93223285
_cell_length_c   7.06208589
_cell_angle_alpha   90.00000000
_cell_angle_beta   90.00000000
_cell_angle_gamma   90.00000000
_symmetry_Int_Tables_number   1
_chemical_formula_structural   NaCl
_chemical_formula_sum   'Na4 Cl4'
_cell_volume   167.96414912
_cell_formula_units_Z   4
loop_
 _symmetry_equiv_pos_site_id
 _symmetry_equiv_pos_as_xyz
  1  'x, y, z'
loop_
 _atom_site_type_symbol
 _atom_site_label
 _atom_site_symmetry_multiplicity
 _atom_site_fract_x
 _atom_site_fract_y
 _atom_site_fract_z
 _atom_site_occupancy
  Na  Na0  1  0.14330985  0.66644866  0.48864725  1.0
  Na  Na1  1  0.82966196  0.37741135  0.19906749  1.0
  Na  Na2  1  0.34611091  0.59551877  0.02220165  1.0
  Na  Na3  1  0.87862826  0.66076233  0.84173450  1.0
  Cl  Cl4  1  0.46029605  0.32981557  0.24856968  1.0
  Cl  Cl5  1  0.90509640  0.95262950  0.74373585  1.0
  Cl  Cl6  1  0.72263373  0.89537145  0.82714346  1.0
  Cl  Cl7  1  0.57248957  0.89080056  0.72173357  1.0
