# generated using pymatgen
data_NaCl
_symmetry_space_group_name_H-M   'P 1'
_cell_length_a   6.16058355
_cell_length_b   8.70864934
_cell_length_c   6.33967621
_cell_angle_alpha   90.00000000
_cell_angle_beta   90.00000000
_cell_angle_gamma   90.00000000
_symmetry_Int_Tables_number   1
_chemical_formula_structural   NaCl
_chemical_formula_sum   'Na4 Cl4'
_cell_volume   340.12592278
_cell_formula_units_Z   4
loop_
 _symmetry_equiv_pos_site_id
 _symmetry_equiv_pos_as_xyz
  1  'x, y, z'
loop_
 _atom_site_type_symbol
 _atom_site_label
 _atom_site_symmetry_multiplicity
 _atom_site_fract_x
 _atom_site_fract_y
 _atom_site_fract_z
 _atom_site_occupancy
  Na  Na0  1  0.00000000  0.45323168  0.53985347  1.0
  Na  Na1  1  0.00000000  0.38846228  0.26631678  1.0
  Na  Na2  1  0.50000000  0.58669155  0.49794390  1.0
  Na  Na3  1  0.50000000  0.83992507  0.71814745  1.0
  Cl  Cl4  1  0.00000000  0.71243506  0.14461307  1.0
  Cl  Cl5  1  0.00000000  0.96426648  0.31411317  1.0
  Cl  Cl6  1  0.50000000  0.89702548  0.31416906  1.0
  Cl  Cl7  1  0.50000000  0.33378964  0.65646795  1.0
