# generated using pymatgen
data_NaCl
_symmetry_space_group_name_H-M   'P 1'
_cell_length_a   7.12469747
_cell_length_b   3.46905675
_cell_length_c   12.16296406
_cell_angle_alpha   90.00000000
_cell_angle_beta   90.00000000
_cell_angle_gamma   90.00000000
_symmetry_Int_Tables_number   1
_chemical_formula_structural   NaCl
_chemical_formula_sum   'Na4 Cl4'
_cell_volume   300.61957462
_cell_formula_units_Z   4
loop_
 _symmetry_equiv_pos_site_id
 _symmetry_equiv_pos_as_xyz
  1  'x, y, z'
loop_
 _atom_site_type_symbol
 _atom_site_label
 _atom_site_symmetry_multiplicity
 _atom_site_fract_x
 _atom_site_fract_y
 _atom_site_fract_z
 _atom_site_occupancy
  Na  Na0  1  0.15749710  0.79018918  0.55698397  1.0
  Na  Na1  1  0.30686681  0.83705059  0.18328819  1.0
  Na  Na2  1  0.25521161  0.93159168  0.41199525  1.0
  Na  Na3  1  0.18922514  0.90315130  0.72834210  1.0
  Cl  Cl4  1  0.32110682  0.51424899  0.30163008  1.0
  Cl  Cl5  1  0.57141698  0.89088532  0.61435659  1.0
  Cl  Cl6  1  0.64814419  0.64241612  0.58565818  1.0
  Cl  Cl7  1  0.41132106  0.39400640  0.74624954  1.0
