# generated using pymatgen
data_NaCl
_symmetry_space_group_name_H-M   'P 1'
_cell_length_a   6.89516961
_cell_length_b   3.11259468
_cell_length_c   12.48333804
_cell_angle_alpha   90.00000000
_cell_angle_beta   76.84131349
_cell_angle_gamma   90.00000000
_symmetry_Int_Tables_number   1
_chemical_formula_structural   NaCl
_chemical_formula_sum   'Na4 Cl4'
_cell_volume   260.88117362
_cell_formula_units_Z   4
loop_
 _symmetry_equiv_pos_site_id
 _symmetry_equiv_pos_as_xyz
  1  'x, y, z'
loop_
 _atom_site_type_symbol
 _atom_site_label
 _atom_site_symmetry_multiplicity
 _atom_site_fract_x
 _atom_site_fract_y
 _atom_site_fract_z
 _atom_site_occupancy
  Na  Na0  1  0.07534625  0.74732722  0.43957092  1.0
  Na  Na1  1  0.38197439  0.95151466  0.23561068  1.0
  Na  Na2  1  0.77448602  0.11608176  0.53374149  1.0
  Na  Na3  1  0.60090500  0.27748181  0.81609774  1.0
  Cl  Cl4  1  0.31504797  0.47110215  0.26036045  1.0
  Cl  Cl5  1  0.48626080  0.53203638  0.80935257  1.0
  Cl  Cl6  1  0.17672702  0.40850813  0.65397571  1.0
  Cl  Cl7  1  0.95452612  0.08110262  0.65603569  1.0
