# generated using pymatgen
data_NaCl
_symmetry_space_group_name_H-M   'P 1'
_cell_length_a   5.79331917
_cell_length_b   8.46290254
_cell_length_c   6.28010070
_cell_angle_alpha   90.00000000
_cell_angle_beta   90.00000000
_cell_angle_gamma   90.00000000
_symmetry_Int_Tables_number   1
_chemical_formula_structural   NaCl
_chemical_formula_sum   'Na4 Cl4'
_cell_volume   307.90263301
_cell_formula_units_Z   4
loop_
 _symmetry_equiv_pos_site_id
 _symmetry_equiv_pos_as_xyz
  1  'x, y, z'
loop_
 _atom_site_type_symbol
 _atom_site_label
 _atom_site_symmetry_multiplicity
 _atom_site_fract_x
 _atom_site_fract_y
 _atom_site_fract_z
 _atom_site_occupancy
  Na  Na0  1  0.09643347  0.52930709  0.52023024  1.0
  Na  Na1  1  0.67444295  0.41592550  0.29932009  1.0
  Na  Na2  1  0.13981706  0.57482122  0.01411848  1.0
  Na  Na3  1  0.88975717  0.74437732  0.87080684  1.0
  Cl  Cl4  1  0.50507535  0.49172632  0.21894653  1.0
  Cl  Cl5  1  0.84748019  0.92114907  0.26544627  1.0
  Cl  Cl6  1  0.87824726  0.95415945  0.11817814  1.0
  Cl  Cl7  1  0.63131794  0.32286019  0.89166477  1.0
