# generated using pymatgen
data_NaCl
_symmetry_space_group_name_H-M   'P 1'
_cell_length_a   4.01497936
_cell_length_b   7.48293666
_cell_length_c   7.68393931
_cell_angle_alpha   90.00000000
_cell_angle_beta   97.66123920
_cell_angle_gamma   90.00000000
_symmetry_Int_Tables_number   1
_chemical_formula_structural   NaCl
_chemical_formula_sum   'Na4 Cl4'
_cell_volume   228.79431360
_cell_formula_units_Z   4
loop_
 _symmetry_equiv_pos_site_id
 _symmetry_equiv_pos_as_xyz
  1  'x, y, z'
loop_
 _atom_site_type_symbol
 _atom_site_label
 _atom_site_symmetry_multiplicity
 _atom_site_fract_x
 _atom_site_fract_y
 _atom_site_fract_z
 _atom_site_occupancy
  Na  Na0  1  0.19458721  0.50317033  0.90273653  1.0
  Na  Na1  1  0.72463021  0.51692691  0.21452600  1.0
  Na  Na2  1  0.26864747  0.78108136  0.43637064  1.0
  Na  Na3  1  0.07898591  0.53859555  0.69199971  1.0
  Cl  Cl4  1  0.21884302  0.09551618  0.07912350  1.0
  Cl  Cl5  1  0.68110199  0.79444937  0.20133411  1.0
  Cl  Cl6  1  0.26451474  0.99223275  0.60552685  1.0
  Cl  Cl7  1  0.51693142  0.07943648  0.15429888  1.0
