# generated using pymatgen
data_NaCl
_symmetry_space_group_name_H-M   'P 1'
_cell_length_a   4.47238779
_cell_length_b   4.79883452
_cell_length_c   15.48567724
_cell_angle_alpha   90.00000000
_cell_angle_beta   96.98014121
_cell_angle_gamma   90.00000000
_symmetry_Int_Tables_number   1
_chemical_formula_structural   NaCl
_chemical_formula_sum   'Na4 Cl4'
_cell_volume   329.89413640
_cell_formula_units_Z   4
loop_
 _symmetry_equiv_pos_site_id
 _symmetry_equiv_pos_as_xyz
  1  'x, y, z'
loop_
 _atom_site_type_symbol
 _atom_site_label
 _atom_site_symmetry_multiplicity
 _atom_site_fract_x
 _atom_site_fract_y
 _atom_site_fract_z
 _atom_site_occupancy
  Na  Na0  1  0.21202487  0.65320329  0.28153837  1.0
  Na  Na1  1  0.64512739  0.25469092  0.12122463  1.0
  Na  Na2  1  0.19127262  0.63033083  0.89405296  1.0
  Na  Na3  1  0.75896700  0.90872694  0.66155829  1.0
  Cl  Cl4  1  0.08586843  0.49913052  0.38362487  1.0
  Cl  Cl5  1  0.17887392  0.43061698  0.03831364  1.0
  Cl  Cl6  1  0.93244493  0.92737747  0.57761938  1.0
  Cl  Cl7  1  0.94993886  0.71503398  0.25115151  1.0
