# generated using pymatgen
data_NaCl
_symmetry_space_group_name_H-M   'P 1'
_cell_length_a   3.45109760
_cell_length_b   7.40686315
_cell_length_c   7.54857798
_cell_angle_alpha   90.00000000
_cell_angle_beta   90.00000000
_cell_angle_gamma   90.00000000
_symmetry_Int_Tables_number   1
_chemical_formula_structural   NaCl
_chemical_formula_sum   'Na4 Cl4'
_cell_volume   192.95529828
_cell_formula_units_Z   4
loop_
 _symmetry_equiv_pos_site_id
 _symmetry_equiv_pos_as_xyz
  1  'x, y, z'
loop_
 _atom_site_type_symbol
 _atom_site_label
 _atom_site_symmetry_multiplicity
 _atom_site_fract_x
 _atom_site_fract_y
 _atom_site_fract_z
 _atom_site_occupancy
  Na  Na0  1  0.07275019  0.62147066  0.51149515  1.0
  Na  Na1  1  0.75527812  0.42421287  0.24269096  1.0
  Na  Na2  1  0.22011017  0.62801019  0.04889216  1.0
  Na  Na3  1  0.96667608  0.73537768  0.89216514  1.0
  Cl  Cl4  1  0.43924574  0.50024337  0.25106154  1.0
  Cl  Cl5  1  0.84404769  0.93255416  0.41138184  1.0
  Cl  Cl6  1  0.72986972  0.97299232  0.84400299  1.0
  Cl  Cl7  1  0.54678731  0.85034339  0.33812116  1.0
