# generated using pymatgen
data_NaCl
_symmetry_space_group_name_H-M   'P 1'
_cell_length_a   8.35189564
_cell_length_b   2.97628872
_cell_length_c   14.71321630
_cell_angle_alpha   90.00000000
_cell_angle_beta   87.67872386
_cell_angle_gamma   90.00000000
_symmetry_Int_Tables_number   1
_chemical_formula_structural   NaCl
_chemical_formula_sum   'Na4 Cl4'
_cell_volume   365.43590782
_cell_formula_units_Z   4
loop_
 _symmetry_equiv_pos_site_id
 _symmetry_equiv_pos_as_xyz
  1  'x, y, z'
loop_
 _atom_site_type_symbol
 _atom_site_label
 _atom_site_symmetry_multiplicity
 _atom_site_fract_x
 _atom_site_fract_y
 _atom_site_fract_z
 _atom_site_occupancy
  Na  Na0  1  0.14907572  0.46555056  0.68001306  1.0
  Na  Na1  1  0.62374294  0.39991000  0.16672937  1.0
  Na  Na2  1  0.65301275  0.08475963  0.50526195  1.0
  Na  Na3  1  0.52798067  0.08449917  0.70111667  1.0
  Cl  Cl4  1  0.87394164  0.52545474  0.17515296  1.0
  Cl  Cl5  1  0.55949787  0.92205469  0.21337663  1.0
  Cl  Cl6  1  0.60075546  0.40967039  0.66658591  1.0
  Cl  Cl7  1  0.00011139  0.55817758  0.15697456  1.0
