# generated using pymatgen
data_NaCl
_symmetry_space_group_name_H-M   'P 1'
_cell_length_a   5.30864089
_cell_length_b   4.64126363
_cell_length_c   7.30628051
_cell_angle_alpha   90.00000000
_cell_angle_beta   90.00000000
_cell_angle_gamma   90.00000000
_symmetry_Int_Tables_number   1
_chemical_formula_structural   NaCl
_chemical_formula_sum   'Na4 Cl4'
_cell_volume   180.01799802
_cell_formula_units_Z   4
loop_
 _symmetry_equiv_pos_site_id
 _symmetry_equiv_pos_as_xyz
  1  'x, y, z'
loop_
 _atom_site_type_symbol
 _atom_site_label
 _atom_site_symmetry_multiplicity
 _atom_site_fract_x
 _atom_site_fract_y
 _atom_site_fract_z
 _atom_site_occupancy
  Na  Na0  1  0.00000000  0.84001040  0.62428096  1.0
  Na  Na1  1  0.50000000  0.47885529  0.24412328  1.0
  Na  Na2  1  0.00000000  0.11074362  0.51107677  1.0
  Na  Na3  1  0.50000000  0.26701658  0.78561550  1.0
  Cl  Cl4  1  0.00000000  0.23854878  0.33207019  1.0
  Cl  Cl5  1  0.50000000  0.13988298  0.65573274  1.0
  Cl  Cl6  1  0.00000000  0.31120797  0.78482796  1.0
  Cl  Cl7  1  0.50000000  0.41579869  0.98822221  1.0
