# generated using pymatgen
data_NaCl
_symmetry_space_group_name_H-M   'P 1'
_cell_length_a   4.83902315
_cell_length_b   4.83902315
_cell_length_c   10.79192929
_cell_angle_alpha   90.00000000
_cell_angle_beta   90.00000000
_cell_angle_gamma   90.00000000
_symmetry_Int_Tables_number   1
_chemical_formula_structural   NaCl
_chemical_formula_sum   'Na4 Cl4'
_cell_volume   252.70538158
_cell_formula_units_Z   4
loop_
 _symmetry_equiv_pos_site_id
 _symmetry_equiv_pos_as_xyz
  1  'x, y, z'
loop_
 _atom_site_type_symbol
 _atom_site_label
 _atom_site_symmetry_multiplicity
 _atom_site_fract_x
 _atom_site_fract_y
 _atom_site_fract_z
 _atom_site_occupancy
  Na  Na0  1  0.05989383  0.05989383  0.00000000  1.0
  Na  Na1  1  0.27227527  0.27227527  0.50000000  1.0
  Na  Na2  1  0.72972717  0.27027283  0.25000000  1.0
  Na  Na3  1  0.96229949  0.03770051  0.75000000  1.0
  Cl  Cl4  1  0.31101745  0.31101745  0.00000000  1.0
  Cl  Cl5  1  0.43747796  0.43747796  0.50000000  1.0
  Cl  Cl6  1  0.19429740  0.80570260  0.25000000  1.0
  Cl  Cl7  1  0.60112366  0.39887634  0.75000000  1.0
