# generated using pymatgen
data_NaCl
_symmetry_space_group_name_H-M   'P 1'
_cell_length_a   6.30771809
_cell_length_b   5.90159132
_cell_length_c   10.11200280
_cell_angle_alpha   90.00000000
_cell_angle_beta   90.00000000
_cell_angle_gamma   90.00000000
_symmetry_Int_Tables_number   1
_chemical_formula_structural   NaCl
_chemical_formula_sum   'Na4 Cl4'
_cell_volume   376.42511185
_cell_formula_units_Z   4
loop_
 _symmetry_equiv_pos_site_id
 _symmetry_equiv_pos_as_xyz
  1  'x, y, z'
loop_
 _atom_site_type_symbol
 _atom_site_label
 _atom_site_symmetry_multiplicity
 _atom_site_fract_x
 _atom_site_fract_y
 _atom_site_fract_z
 _atom_site_occupancy
  Na  Na0  1  0.00000000  0.75537732  0.47960966  1.0
  Na  Na1  1  0.50000000  0.43782249  0.29147596  1.0
  Na  Na2  1  0.00000000  0.03056806  0.51874642  1.0
  Na  Na3  1  0.50000000  0.33167166  0.53057713  1.0
  Cl  Cl4  1  0.00000000  0.49954662  0.37970982  1.0
  Cl  Cl5  1  0.50000000  0.99943020  0.86837249  1.0
  Cl  Cl6  1  0.00000000  0.48994920  0.72258417  1.0
  Cl  Cl7  1  0.50000000  0.32993301  0.76866343  1.0
