# generated using pymatgen
data_NaCl
_symmetry_space_group_name_H-M   'P 1'
_cell_length_a   5.49136058
_cell_length_b   5.49136058
_cell_length_c   3.93553360
_cell_angle_alpha   90.00000000
_cell_angle_beta   90.00000000
_cell_angle_gamma   90.00000000
_symmetry_Int_Tables_number   1
_chemical_formula_structural   NaCl
_chemical_formula_sum   'Na4 Cl4'
_cell_volume   118.67617714
_cell_formula_units_Z   4
loop_
 _symmetry_equiv_pos_site_id
 _symmetry_equiv_pos_as_xyz
  1  'x, y, z'
loop_
 _atom_site_type_symbol
 _atom_site_label
 _atom_site_symmetry_multiplicity
 _atom_site_fract_x
 _atom_site_fract_y
 _atom_site_fract_z
 _atom_site_occupancy
  Na  Na0  1  0.00112433  0.25703361  0.48028458  1.0
  Na  Na1  1  0.25027351  0.39787331  0.26527821  1.0
  Na  Na2  1  0.86005909  0.91270237  0.75389786  1.0
  Na  Na3  1  0.72250425  0.59544934  0.85935530  1.0
  Cl  Cl4  1  0.55378958  0.55397197  0.15847518  1.0
  Cl  Cl5  1  0.26021469  0.91130039  0.32140484  1.0
  Cl  Cl6  1  0.55555921  0.19172169  0.63311458  1.0
  Cl  Cl7  1  0.16687404  0.87151405  0.96587569  1.0
