# generated using pymatgen
data_NaCl
_symmetry_space_group_name_H-M   'P 1'
_cell_length_a   8.06575678
_cell_length_b   2.03910765
_cell_length_c   11.70160078
_cell_angle_alpha   90.00000000
_cell_angle_beta   100.79149314
_cell_angle_gamma   90.00000000
_symmetry_Int_Tables_number   1
_chemical_formula_structural   NaCl
_chemical_formula_sum   'Na4 Cl4'
_cell_volume   189.05203471
_cell_formula_units_Z   4
loop_
 _symmetry_equiv_pos_site_id
 _symmetry_equiv_pos_as_xyz
  1  'x, y, z'
loop_
 _atom_site_type_symbol
 _atom_site_label
 _atom_site_symmetry_multiplicity
 _atom_site_fract_x
 _atom_site_fract_y
 _atom_site_fract_z
 _atom_site_occupancy
  Na  Na0  1  0.11399747  0.00000000  0.84297026  1.0
  Na  Na1  1  0.22579389  0.50000000  0.61171548  1.0
  Na  Na2  1  0.80710272  0.00000000  0.45638923  1.0
  Na  Na3  1  0.01481151  0.50000000  0.23398120  1.0
  Cl  Cl4  1  0.19266511  0.00000000  0.07559527  1.0
  Cl  Cl5  1  0.21374270  0.50000000  0.44342445  1.0
  Cl  Cl6  1  0.70845654  0.00000000  0.53330342  1.0
  Cl  Cl7  1  0.52047341  0.50000000  0.60577217  1.0
