# generated using pymatgen
data_NaCl
_symmetry_space_group_name_H-M   'P 1'
_cell_length_a   6.84097660
_cell_length_b   7.79841921
_cell_length_c   6.70257112
_cell_angle_alpha   90.00000000
_cell_angle_beta   90.00000000
_cell_angle_gamma   90.00000000
_symmetry_Int_Tables_number   1
_chemical_formula_structural   NaCl
_chemical_formula_sum   'Na4 Cl4'
_cell_volume   357.57414850
_cell_formula_units_Z   4
loop_
 _symmetry_equiv_pos_site_id
 _symmetry_equiv_pos_as_xyz
  1  'x, y, z'
loop_
 _atom_site_type_symbol
 _atom_site_label
 _atom_site_symmetry_multiplicity
 _atom_site_fract_x
 _atom_site_fract_y
 _atom_site_fract_z
 _atom_site_occupancy
  Na  Na0  1  0.56392693  0.61086316  0.46260544  1.0
  Na  Na1  1  0.32527785  0.50957451  0.72265995  1.0
  Na  Na2  1  0.79346844  0.45919399  0.97592408  1.0
  Na  Na3  1  0.65922188  0.24071071  0.76216191  1.0
  Cl  Cl4  1  0.50000000  0.00000000  0.16843504  1.0
  Cl  Cl5  1  0.50000000  0.50000000  0.14726441  1.0
  Cl  Cl6  1  0.50000000  0.00000000  0.52676282  1.0
  Cl  Cl7  1  0.50000000  0.50000000  0.69317446  1.0
