# generated using pymatgen
data_NaCl
_symmetry_space_group_name_H-M   'P 1'
_cell_length_a   5.58410717
_cell_length_b   5.58410717
_cell_length_c   9.54280991
_cell_angle_alpha   90.00000000
_cell_angle_beta   90.00000000
_cell_angle_gamma   90.00000000
_symmetry_Int_Tables_number   1
_chemical_formula_structural   NaCl
_chemical_formula_sum   'Na4 Cl4'
_cell_volume   297.56631186
_cell_formula_units_Z   4
loop_
 _symmetry_equiv_pos_site_id
 _symmetry_equiv_pos_as_xyz
  1  'x, y, z'
loop_
 _atom_site_type_symbol
 _atom_site_label
 _atom_site_symmetry_multiplicity
 _atom_site_fract_x
 _atom_site_fract_y
 _atom_site_fract_z
 _atom_site_occupancy
  Na  Na0  1  0.00022869  0.24801097  0.43475351  1.0
  Na  Na1  1  0.24928400  0.43079015  0.32138355  1.0
  Na  Na2  1  0.89039276  0.80470022  0.72848908  1.0
  Na  Na3  1  0.68819613  0.56497740  0.92752287  1.0
  Cl  Cl4  1  0.52784665  0.62162671  0.16442556  1.0
  Cl  Cl5  1  0.23814890  0.97218120  0.35411117  1.0
  Cl  Cl6  1  0.58205318  0.21917408  0.70048285  1.0
  Cl  Cl7  1  0.30316489  0.93508859  0.92065140  1.0
