# generated using pymatgen
data_NaCl
_symmetry_space_group_name_H-M   'P 1'
_cell_length_a   6.03782130
_cell_length_b   4.22377820
_cell_length_c   15.58648316
_cell_angle_alpha   90.00000000
_cell_angle_beta   76.74187003
_cell_angle_gamma   90.00000000
_symmetry_Int_Tables_number   1
_chemical_formula_structural   NaCl
_chemical_formula_sum   'Na4 Cl4'
_cell_volume   386.89851849
_cell_formula_units_Z   4
loop_
 _symmetry_equiv_pos_site_id
 _symmetry_equiv_pos_as_xyz
  1  'x, y, z'
loop_
 _atom_site_type_symbol
 _atom_site_label
 _atom_site_symmetry_multiplicity
 _atom_site_fract_x
 _atom_site_fract_y
 _atom_site_fract_z
 _atom_site_occupancy
  Na  Na0  1  0.16645982  0.00000000  0.57225306  1.0
  Na  Na1  1  0.08175735  0.50000000  0.64658335  1.0
  Na  Na2  1  0.52467327  0.00000000  0.72468782  1.0
  Na  Na3  1  0.33155058  0.50000000  0.04665728  1.0
  Cl  Cl4  1  0.28126769  0.00000000  0.24317837  1.0
  Cl  Cl5  1  0.94867674  0.50000000  0.33107370  1.0
  Cl  Cl6  1  0.31365533  0.00000000  0.64925869  1.0
  Cl  Cl7  1  0.60284555  0.50000000  0.51177398  1.0
