# generated using pymatgen
data_NaCl
_symmetry_space_group_name_H-M   'P 1'
_cell_length_a   3.50166359
_cell_length_b   3.50166359
_cell_length_c   13.92284894
_cell_angle_alpha   90.00000000
_cell_angle_beta   90.00000000
_cell_angle_gamma   90.00000000
_symmetry_Int_Tables_number   1
_chemical_formula_structural   NaCl
_chemical_formula_sum   'Na4 Cl4'
_cell_volume   170.71707143
_cell_formula_units_Z   4
loop_
 _symmetry_equiv_pos_site_id
 _symmetry_equiv_pos_as_xyz
  1  'x, y, z'
loop_
 _atom_site_type_symbol
 _atom_site_label
 _atom_site_symmetry_multiplicity
 _atom_site_fract_x
 _atom_site_fract_y
 _atom_site_fract_z
 _atom_site_occupancy
  Na  Na0  1  0.00000000  0.00000000  0.62995035  1.0
  Na  Na1  1  0.50000000  0.50000000  0.66125492  1.0
  Na  Na2  1  0.00000000  0.00000000  0.48676323  1.0
  Na  Na3  1  0.50000000  0.50000000  0.03783071  1.0
  Cl  Cl4  1  0.66843997  0.16843997  0.29065553  1.0
  Cl  Cl5  1  0.54755543  0.04755543  0.33883339  1.0
  Cl  Cl6  1  0.71311822  0.78688178  0.74155435  1.0
  Cl  Cl7  1  0.63805944  0.86194056  0.58535859  1.0
