# generated using pymatgen
data_NaCl
_symmetry_space_group_name_H-M   'P 1'
_cell_length_a   4.89219820
_cell_length_b   3.58430408
_cell_length_c   17.00873288
_cell_angle_alpha   90.00000000
_cell_angle_beta   68.43340475
_cell_angle_gamma   90.00000000
_symmetry_Int_Tables_number   1
_chemical_formula_structural   NaCl
_chemical_formula_sum   'Na4 Cl4'
_cell_volume   277.37005616
_cell_formula_units_Z   4
loop_
 _symmetry_equiv_pos_site_id
 _symmetry_equiv_pos_as_xyz
  1  'x, y, z'
loop_
 _atom_site_type_symbol
 _atom_site_label
 _atom_site_symmetry_multiplicity
 _atom_site_fract_x
 _atom_site_fract_y
 _atom_site_fract_z
 _atom_site_occupancy
  Na  Na0  1  0.08446993  0.00000000  0.56716256  1.0
  Na  Na1  1  0.58938831  0.00000000  0.81730797  1.0
  Na  Na2  1  0.67650783  0.00000000  0.54324991  1.0
  Na  Na3  1  0.45760561  0.50000000  0.12492650  1.0
  Cl  Cl4  1  0.12104764  0.00000000  0.22924900  1.0
  Cl  Cl5  1  0.59780794  0.50000000  0.39371230  1.0
  Cl  Cl6  1  0.61370979  0.40802328  0.63853322  1.0
  Cl  Cl7  1  0.41971202  0.45766958  0.55591035  1.0
