# generated using pymatgen
data_NaCl
_symmetry_space_group_name_H-M   'P 1'
_cell_length_a   4.98970385
_cell_length_b   7.58160012
_cell_length_c   9.29604137
_cell_angle_alpha   90.00000000
_cell_angle_beta   90.00000000
_cell_angle_gamma   90.00000000
_symmetry_Int_Tables_number   1
_chemical_formula_structural   NaCl
_chemical_formula_sum   'Na4 Cl4'
_cell_volume   351.66868083
_cell_formula_units_Z   4
loop_
 _symmetry_equiv_pos_site_id
 _symmetry_equiv_pos_as_xyz
  1  'x, y, z'
loop_
 _atom_site_type_symbol
 _atom_site_label
 _atom_site_symmetry_multiplicity
 _atom_site_fract_x
 _atom_site_fract_y
 _atom_site_fract_z
 _atom_site_occupancy
  Na  Na0  1  0.48116419  0.55971294  0.47429505  1.0
  Na  Na1  1  0.73323608  0.45124849  0.27204220  1.0
  Na  Na2  1  0.19786937  0.56173690  0.95927164  1.0
  Na  Na3  1  0.94572376  0.71373180  0.72942692  1.0
  Cl  Cl4  1  0.41024931  0.53082328  0.24691758  1.0
  Cl  Cl5  1  0.77355271  0.86533930  0.12250320  1.0
  Cl  Cl6  1  0.46933652  0.90411820  0.97022028  1.0
  Cl  Cl7  1  0.58771625  0.20521601  0.87605976  1.0
