# generated using pymatgen
data_NaCl
_symmetry_space_group_name_H-M   'P 1'
_cell_length_a   3.93303937
_cell_length_b   6.23550913
_cell_length_c   9.30743267
_cell_angle_alpha   90.00000000
_cell_angle_beta   118.36262479
_cell_angle_gamma   90.00000000
_symmetry_Int_Tables_number   1
_chemical_formula_structural   NaCl
_chemical_formula_sum   'Na4 Cl4'
_cell_volume   200.85950069
_cell_formula_units_Z   4
loop_
 _symmetry_equiv_pos_site_id
 _symmetry_equiv_pos_as_xyz
  1  'x, y, z'
loop_
 _atom_site_type_symbol
 _atom_site_label
 _atom_site_symmetry_multiplicity
 _atom_site_fract_x
 _atom_site_fract_y
 _atom_site_fract_z
 _atom_site_occupancy
  Na  Na0  1  0.56693283  0.54901103  0.40490085  1.0
  Na  Na1  1  0.83422185  0.45916840  0.27654679  1.0
  Na  Na2  1  0.76478326  0.06315288  0.45864793  1.0
  Na  Na3  1  0.37216465  0.18838378  0.74641378  1.0
  Cl  Cl4  1  0.37778082  0.53399483  0.19931143  1.0
  Cl  Cl5  1  0.67354252  0.93985483  0.27894283  1.0
  Cl  Cl6  1  0.15975316  0.31069117  0.47348489  1.0
  Cl  Cl7  1  0.01480085  0.77225874  0.68549553  1.0
