# generated using pymatgen
data_NaCl
_symmetry_space_group_name_H-M   'P 1'
_cell_length_a   4.55134414
_cell_length_b   4.70442201
_cell_length_c   13.72856522
_cell_angle_alpha   90.00000000
_cell_angle_beta   68.83747991
_cell_angle_gamma   90.00000000
_symmetry_Int_Tables_number   1
_chemical_formula_structural   NaCl
_chemical_formula_sum   'Na4 Cl4'
_cell_volume   274.12456549
_cell_formula_units_Z   4
loop_
 _symmetry_equiv_pos_site_id
 _symmetry_equiv_pos_as_xyz
  1  'x, y, z'
loop_
 _atom_site_type_symbol
 _atom_site_label
 _atom_site_symmetry_multiplicity
 _atom_site_fract_x
 _atom_site_fract_y
 _atom_site_fract_z
 _atom_site_occupancy
  Na  Na0  1  0.16419053  0.79651432  0.67682040  1.0
  Na  Na1  1  0.73507833  0.62994086  0.15923928  1.0
  Na  Na2  1  0.81493446  0.09438524  0.40662258  1.0
  Na  Na3  1  0.34933570  0.05420295  0.72326909  1.0
  Cl  Cl4  1  0.25110524  0.63291989  0.32050380  1.0
  Cl  Cl5  1  0.92962670  0.87441639  0.57713331  1.0
  Cl  Cl6  1  0.21259760  0.28710501  0.53178105  1.0
  Cl  Cl7  1  0.02752732  0.44889411  0.88294663  1.0
