# generated using pymatgen
data_NaCl
_symmetry_space_group_name_H-M   'P 1'
_cell_length_a   7.38712372
_cell_length_b   4.88286662
_cell_length_c   11.63579068
_cell_angle_alpha   90.00000000
_cell_angle_beta   52.29130591
_cell_angle_gamma   90.00000000
_symmetry_Int_Tables_number   1
_chemical_formula_structural   NaCl
_chemical_formula_sum   'Na4 Cl4'
_cell_volume   332.04304537
_cell_formula_units_Z   4
loop_
 _symmetry_equiv_pos_site_id
 _symmetry_equiv_pos_as_xyz
  1  'x, y, z'
loop_
 _atom_site_type_symbol
 _atom_site_label
 _atom_site_symmetry_multiplicity
 _atom_site_fract_x
 _atom_site_fract_y
 _atom_site_fract_z
 _atom_site_occupancy
  Na  Na0  1  0.08947791  0.00000000  0.43906634  1.0
  Na  Na1  1  0.15284670  0.50000000  0.77614237  1.0
  Na  Na2  1  0.81640065  0.00000000  0.62607012  1.0
  Na  Na3  1  0.77775105  0.50000000  0.15801023  1.0
  Cl  Cl4  1  0.36490813  0.00000000  0.26676798  1.0
  Cl  Cl5  1  0.88309093  0.50000000  0.27142083  1.0
  Cl  Cl6  1  0.22518981  0.00000000  0.68002865  1.0
  Cl  Cl7  1  0.68430654  0.50000000  0.29103820  1.0
