# generated using pymatgen
data_NaCl
_symmetry_space_group_name_H-M   'P 1'
_cell_length_a   3.78708493
_cell_length_b   3.78708493
_cell_length_c   16.64249295
_cell_angle_alpha   90.00000000
_cell_angle_beta   90.00000000
_cell_angle_gamma   90.00000000
_symmetry_Int_Tables_number   1
_chemical_formula_structural   NaCl
_chemical_formula_sum   'Na4 Cl4'
_cell_volume   238.68683804
_cell_formula_units_Z   4
loop_
 _symmetry_equiv_pos_site_id
 _symmetry_equiv_pos_as_xyz
  1  'x, y, z'
loop_
 _atom_site_type_symbol
 _atom_site_label
 _atom_site_symmetry_multiplicity
 _atom_site_fract_x
 _atom_site_fract_y
 _atom_site_fract_z
 _atom_site_occupancy
  Na  Na0  1  0.45124776  0.50937354  0.29672443  1.0
  Na  Na1  1  0.47527880  0.10946039  0.81871647  1.0
  Na  Na2  1  0.79348602  0.93002123  0.46226198  1.0
  Na  Na3  1  0.11500339  0.75804054  0.64340213  1.0
  Cl  Cl4  1  0.07881150  0.43176810  0.40884638  1.0
  Cl  Cl5  1  0.85366578  0.92412392  0.20094643  1.0
  Cl  Cl6  1  0.48380562  0.33187021  0.67523944  1.0
  Cl  Cl7  1  0.62340698  0.48939085  0.08927535  1.0
