# generated using pymatgen
data_NaCl
_symmetry_space_group_name_H-M   'P 1'
_cell_length_a   5.81625241
_cell_length_b   5.81625241
_cell_length_c   5.81625241
_cell_angle_alpha   90.00000000
_cell_angle_beta   90.00000000
_cell_angle_gamma   90.00000000
_symmetry_Int_Tables_number   1
_chemical_formula_structural   NaCl
_chemical_formula_sum   'Na4 Cl4'
_cell_volume   196.75679356
_cell_formula_units_Z   4
loop_
 _symmetry_equiv_pos_site_id
 _symmetry_equiv_pos_as_xyz
  1  'x, y, z'
loop_
 _atom_site_type_symbol
 _atom_site_label
 _atom_site_symmetry_multiplicity
 _atom_site_fract_x
 _atom_site_fract_y
 _atom_site_fract_z
 _atom_site_occupancy
  Na  Na0  1  0.04322748  0.04322748  0.04322748  1.0
  Na  Na1  1  0.77575657  0.27575657  0.22424343  1.0
  Na  Na2  1  0.31492784  0.18507216  0.81492784  1.0
  Na  Na3  1  0.83946830  0.16053170  0.66053170  1.0
  Cl  Cl4  1  0.55234779  0.55234779  0.55234779  1.0
  Cl  Cl5  1  0.99352986  0.49352986  0.00647014  1.0
  Cl  Cl6  1  0.46038389  0.03961611  0.96038389  1.0
  Cl  Cl7  1  0.71068642  0.28931358  0.78931358  1.0
