# generated using pymatgen
data_NaCl
_symmetry_space_group_name_H-M   'P 1'
_cell_length_a   6.68343116
_cell_length_b   6.68343116
_cell_length_c   6.68343116
_cell_angle_alpha   90.00000000
_cell_angle_beta   90.00000000
_cell_angle_gamma   90.00000000
_symmetry_Int_Tables_number   1
_chemical_formula_structural   NaCl
_chemical_formula_sum   'Na4 Cl4'
_cell_volume   298.53718775
_cell_formula_units_Z   4
loop_
 _symmetry_equiv_pos_site_id
 _symmetry_equiv_pos_as_xyz
  1  'x, y, z'
loop_
 _atom_site_type_symbol
 _atom_site_label
 _atom_site_symmetry_multiplicity
 _atom_site_fract_x
 _atom_site_fract_y
 _atom_site_fract_z
 _atom_site_occupancy
  Na  Na0  1  0.03696125  0.03696125  0.03696125  1.0
  Na  Na1  1  0.87414973  0.37414973  0.12585027  1.0
  Na  Na2  1  0.18918305  0.31081695  0.68918305  1.0
  Na  Na3  1  0.06295363  0.93704637  0.43704637  1.0
  Cl  Cl4  1  0.32236812  0.32236812  0.32236812  1.0
  Cl  Cl5  1  0.99792074  0.49792074  0.00207926  1.0
  Cl  Cl6  1  0.74564351  0.75435649  0.24564351  1.0
  Cl  Cl7  1  0.50023253  0.49976747  0.99976747  1.0
