# generated using pymatgen
data_NaCl
_symmetry_space_group_name_H-M   'P 1'
_cell_length_a   5.66465429
_cell_length_b   5.66465429
_cell_length_c   10.27888434
_cell_angle_alpha   90.00000000
_cell_angle_beta   90.00000000
_cell_angle_gamma   90.00000000
_symmetry_Int_Tables_number   1
_chemical_formula_structural   NaCl
_chemical_formula_sum   'Na4 Cl4'
_cell_volume   329.83200891
_cell_formula_units_Z   4
loop_
 _symmetry_equiv_pos_site_id
 _symmetry_equiv_pos_as_xyz
  1  'x, y, z'
loop_
 _atom_site_type_symbol
 _atom_site_label
 _atom_site_symmetry_multiplicity
 _atom_site_fract_x
 _atom_site_fract_y
 _atom_site_fract_z
 _atom_site_occupancy
  Na  Na0  1  0.10031286  0.56675762  0.53840148  1.0
  Na  Na1  1  0.22661038  0.27312464  0.21036169  1.0
  Na  Na2  1  0.89953456  0.84381022  0.79197022  1.0
  Na  Na3  1  0.80055485  0.81363989  0.95335071  1.0
  Cl  Cl4  1  0.32849130  0.49249345  0.44544303  1.0
  Cl  Cl5  1  0.28628649  0.88887979  0.16807740  1.0
  Cl  Cl6  1  0.65276438  0.10071845  0.66079125  1.0
  Cl  Cl7  1  0.35633747  0.93113504  0.86192843  1.0
