# generated using pymatgen
data_NaCl
_symmetry_space_group_name_H-M   'P 1'
_cell_length_a   3.42469770
_cell_length_b   5.32598316
_cell_length_c   13.62841017
_cell_angle_alpha   90.00000000
_cell_angle_beta   90.00000000
_cell_angle_gamma   90.00000000
_symmetry_Int_Tables_number   1
_chemical_formula_structural   NaCl
_chemical_formula_sum   'Na4 Cl4'
_cell_volume   248.58059714
_cell_formula_units_Z   4
loop_
 _symmetry_equiv_pos_site_id
 _symmetry_equiv_pos_as_xyz
  1  'x, y, z'
loop_
 _atom_site_type_symbol
 _atom_site_label
 _atom_site_symmetry_multiplicity
 _atom_site_fract_x
 _atom_site_fract_y
 _atom_site_fract_z
 _atom_site_occupancy
  Na  Na0  1  0.25000000  0.75000000  0.12029242  1.0
  Na  Na1  1  0.75000000  0.25000000  0.99943915  1.0
  Na  Na2  1  0.25000000  0.75000000  0.42762828  1.0
  Na  Na3  1  0.75000000  0.25000000  0.83033381  1.0
  Cl  Cl4  1  0.25000000  0.90260531  0.72677127  1.0
  Cl  Cl5  1  0.25000000  0.69312266  0.58065084  1.0
  Cl  Cl6  1  0.75000000  0.60780092  0.86770476  1.0
  Cl  Cl7  1  0.75000000  0.96120967  0.68345237  1.0
