# generated using pymatgen
data_NaCl
_symmetry_space_group_name_H-M   'P 1'
_cell_length_a   6.51326259
_cell_length_b   6.51326259
_cell_length_c   6.51326259
_cell_angle_alpha   90.00000000
_cell_angle_beta   90.00000000
_cell_angle_gamma   90.00000000
_symmetry_Int_Tables_number   1
_chemical_formula_structural   NaCl
_chemical_formula_sum   'Na4 Cl4'
_cell_volume   276.30946559
_cell_formula_units_Z   4
loop_
 _symmetry_equiv_pos_site_id
 _symmetry_equiv_pos_as_xyz
  1  'x, y, z'
loop_
 _atom_site_type_symbol
 _atom_site_label
 _atom_site_symmetry_multiplicity
 _atom_site_fract_x
 _atom_site_fract_y
 _atom_site_fract_z
 _atom_site_occupancy
  Na  Na0  1  0.83495081  0.83495081  0.83495081  1.0
  Na  Na1  1  0.15061982  0.65061982  0.84938018  1.0
  Na  Na2  1  0.29440715  0.20559285  0.79440715  1.0
  Na  Na3  1  0.69534647  0.30465353  0.80465353  1.0
  Cl  Cl4  1  0.65137291  0.65137291  0.65137291  1.0
  Cl  Cl5  1  0.02597415  0.52597415  0.97402585  1.0
  Cl  Cl6  1  0.91628162  0.58371838  0.41628162  1.0
  Cl  Cl7  1  0.86786016  0.13213984  0.63213984  1.0
