# generated using pymatgen
data_NaCl
_symmetry_space_group_name_H-M   'P 1'
_cell_length_a   6.29193701
_cell_length_b   5.52559457
_cell_length_c   11.74982010
_cell_angle_alpha   90.00000000
_cell_angle_beta   61.26892999
_cell_angle_gamma   90.00000000
_symmetry_Int_Tables_number   1
_chemical_formula_structural   NaCl
_chemical_formula_sum   'Na4 Cl4'
_cell_volume   358.20987057
_cell_formula_units_Z   4
loop_
 _symmetry_equiv_pos_site_id
 _symmetry_equiv_pos_as_xyz
  1  'x, y, z'
loop_
 _atom_site_type_symbol
 _atom_site_label
 _atom_site_symmetry_multiplicity
 _atom_site_fract_x
 _atom_site_fract_y
 _atom_site_fract_z
 _atom_site_occupancy
  Na  Na0  1  0.56134061  0.19894829  0.14534802  1.0
  Na  Na1  1  0.59534386  0.79878969  0.83223232  1.0
  Na  Na2  1  0.87918210  0.53599460  0.43846945  1.0
  Na  Na3  1  0.26339402  0.65242228  0.94355866  1.0
  Cl  Cl4  1  0.00000000  0.72294439  0.00000000  1.0
  Cl  Cl5  1  0.50000000  0.47287952  0.00000000  1.0
  Cl  Cl6  1  0.00000000  0.15928698  0.00000000  1.0
  Cl  Cl7  1  0.50000000  0.85214207  0.00000000  1.0
