# generated using pymatgen
data_NaCl
_symmetry_space_group_name_H-M   'P 1'
_cell_length_a   8.13333558
_cell_length_b   9.56862241
_cell_length_c   3.66509512
_cell_angle_alpha   90.00000000
_cell_angle_beta   109.46969374
_cell_angle_gamma   90.00000000
_symmetry_Int_Tables_number   1
_chemical_formula_structural   NaCl
_chemical_formula_sum   'Na4 Cl4'
_cell_volume   268.92500758
_cell_formula_units_Z   4
loop_
 _symmetry_equiv_pos_site_id
 _symmetry_equiv_pos_as_xyz
  1  'x, y, z'
loop_
 _atom_site_type_symbol
 _atom_site_label
 _atom_site_symmetry_multiplicity
 _atom_site_fract_x
 _atom_site_fract_y
 _atom_site_fract_z
 _atom_site_occupancy
  Na  Na0  1  0.50714727  0.75358692  0.33496087  1.0
  Na  Na1  1  0.68897683  0.14722938  0.47058066  1.0
  Na  Na2  1  0.83070662  0.63229205  0.37491254  1.0
  Na  Na3  1  0.06499358  0.23002399  0.03371896  1.0
  Cl  Cl4  1  0.27984033  0.76120755  0.42453036  1.0
  Cl  Cl5  1  0.84349397  0.07520789  0.70295964  1.0
  Cl  Cl6  1  0.97933798  0.65113524  0.55816533  1.0
  Cl  Cl7  1  0.15417156  0.45484480  0.27212665  1.0
