# generated using pymatgen
data_NaCl
_symmetry_space_group_name_H-M   'P 1'
_cell_length_a   6.23745950
_cell_length_b   4.81790914
_cell_length_c   11.78988008
_cell_angle_alpha   90.00000000
_cell_angle_beta   90.00000000
_cell_angle_gamma   90.00000000
_symmetry_Int_Tables_number   1
_chemical_formula_structural   NaCl
_chemical_formula_sum   'Na4 Cl4'
_cell_volume   354.30373609
_cell_formula_units_Z   4
loop_
 _symmetry_equiv_pos_site_id
 _symmetry_equiv_pos_as_xyz
  1  'x, y, z'
loop_
 _atom_site_type_symbol
 _atom_site_label
 _atom_site_symmetry_multiplicity
 _atom_site_fract_x
 _atom_site_fract_y
 _atom_site_fract_z
 _atom_site_occupancy
  Na  Na0  1  0.55041631  0.91342115  0.10225944  1.0
  Na  Na1  1  0.25293397  0.73674036  0.96630452  1.0
  Na  Na2  1  0.57731765  0.27694745  0.36833711  1.0
  Na  Na3  1  0.73077868  0.02013193  0.60251609  1.0
  Cl  Cl4  1  0.40886791  0.93337432  0.68762613  1.0
  Cl  Cl5  1  0.25439154  0.25661179  0.30065881  1.0
  Cl  Cl6  1  0.15853975  0.24215995  0.84512546  1.0
  Cl  Cl7  1  0.17413566  0.90918748  0.90964994  1.0
