# generated using pymatgen
data_NaCl
_symmetry_space_group_name_H-M   'P 1'
_cell_length_a   2.34744543
_cell_length_b   14.22707471
_cell_length_c   7.79941373
_cell_angle_alpha   90.00000000
_cell_angle_beta   83.94478425
_cell_angle_gamma   90.00000000
_symmetry_Int_Tables_number   1
_chemical_formula_structural   NaCl
_chemical_formula_sum   'Na4 Cl4'
_cell_volume   259.02592423
_cell_formula_units_Z   4
loop_
 _symmetry_equiv_pos_site_id
 _symmetry_equiv_pos_as_xyz
  1  'x, y, z'
loop_
 _atom_site_type_symbol
 _atom_site_label
 _atom_site_symmetry_multiplicity
 _atom_site_fract_x
 _atom_site_fract_y
 _atom_site_fract_z
 _atom_site_occupancy
  Na  Na0  1  0.43378870  0.87624925  0.23780169  1.0
  Na  Na1  1  0.43813787  0.18556870  0.75603364  1.0
  Na  Na2  1  0.29495091  0.10197085  0.32090131  1.0
  Na  Na3  1  0.09453412  0.97878157  0.80358794  1.0
  Cl  Cl4  1  0.33133618  0.68709022  0.53459648  1.0
  Cl  Cl5  1  0.16527793  0.45471055  0.60215744  1.0
  Cl  Cl6  1  0.78621242  0.07981314  0.71149896  1.0
  Cl  Cl7  1  0.76248232  0.69264995  0.41335923  1.0
