# generated using pymatgen
data_NaCl
_symmetry_space_group_name_H-M   'P 1'
_cell_length_a   5.63543353
_cell_length_b   5.63543353
_cell_length_c   5.63543353
_cell_angle_alpha   90.00000000
_cell_angle_beta   90.00000000
_cell_angle_gamma   90.00000000
_symmetry_Int_Tables_number   1
_chemical_formula_structural   NaCl
_chemical_formula_sum   'Na4 Cl4'
_cell_volume   178.97072398
_cell_formula_units_Z   4
loop_
 _symmetry_equiv_pos_site_id
 _symmetry_equiv_pos_as_xyz
  1  'x, y, z'
loop_
 _atom_site_type_symbol
 _atom_site_label
 _atom_site_symmetry_multiplicity
 _atom_site_fract_x
 _atom_site_fract_y
 _atom_site_fract_z
 _atom_site_occupancy
  Na  Na0  1  0.82689453  0.82689453  0.82689453  1.0
  Na  Na1  1  0.17509600  0.67509600  0.82490400  1.0
  Na  Na2  1  0.36702909  0.13297091  0.86702909  1.0
  Na  Na3  1  0.56518347  0.43481653  0.93481653  1.0
  Cl  Cl4  1  0.69557266  0.69557266  0.69557266  1.0
  Cl  Cl5  1  0.03974918  0.53974918  0.96025082  1.0
  Cl  Cl6  1  0.98145715  0.51854285  0.48145715  1.0
  Cl  Cl7  1  0.94167029  0.05832971  0.55832971  1.0
