# generated using pymatgen
data_NaCl
_symmetry_space_group_name_H-M   'P 1'
_cell_length_a   5.73825717
_cell_length_b   5.73825717
_cell_length_c   9.78991464
_cell_angle_alpha   90.00000000
_cell_angle_beta   90.00000000
_cell_angle_gamma   90.00000000
_symmetry_Int_Tables_number   1
_chemical_formula_structural   NaCl
_chemical_formula_sum   'Na4 Cl4'
_cell_volume   322.35834777
_cell_formula_units_Z   4
loop_
 _symmetry_equiv_pos_site_id
 _symmetry_equiv_pos_as_xyz
  1  'x, y, z'
loop_
 _atom_site_type_symbol
 _atom_site_label
 _atom_site_symmetry_multiplicity
 _atom_site_fract_x
 _atom_site_fract_y
 _atom_site_fract_z
 _atom_site_occupancy
  Na  Na0  1  0.78888057  0.06076714  0.94551456  1.0
  Na  Na1  1  0.28318456  0.17506143  0.22751259  1.0
  Na  Na2  1  0.68491706  0.53754729  0.85971211  1.0
  Na  Na3  1  0.03463194  0.52921204  0.37958523  1.0
  Cl  Cl4  1  0.16125173  0.06010817  0.99972103  1.0
  Cl  Cl5  1  0.96428023  0.30280071  0.55173888  1.0
  Cl  Cl6  1  0.68702806  0.53248502  0.21524807  1.0
  Cl  Cl7  1  0.77051687  0.84038969  0.74881457  1.0
