# generated using pymatgen
data_NaCl
_symmetry_space_group_name_H-M   'P 1'
_cell_length_a   7.69054264
_cell_length_b   8.02588547
_cell_length_c   2.77687517
_cell_angle_alpha   90.00000000
_cell_angle_beta   90.00000000
_cell_angle_gamma   90.00000000
_symmetry_Int_Tables_number   1
_chemical_formula_structural   NaCl
_chemical_formula_sum   'Na4 Cl4'
_cell_volume   171.39821694
_cell_formula_units_Z   4
loop_
 _symmetry_equiv_pos_site_id
 _symmetry_equiv_pos_as_xyz
  1  'x, y, z'
loop_
 _atom_site_type_symbol
 _atom_site_label
 _atom_site_symmetry_multiplicity
 _atom_site_fract_x
 _atom_site_fract_y
 _atom_site_fract_z
 _atom_site_occupancy
  Na  Na0  1  0.51226090  0.29476121  0.94876215  1.0
  Na  Na1  1  0.34096391  0.55897447  0.18011072  1.0
  Na  Na2  1  0.06266491  0.49767920  0.88917830  1.0
  Na  Na3  1  0.53962562  0.06051478  0.09673968  1.0
  Cl  Cl4  1  0.26670058  0.20844360  0.85842132  1.0
  Cl  Cl5  1  0.91241871  0.27226341  0.79800059  1.0
  Cl  Cl6  1  0.50982141  0.55639101  0.72551560  1.0
  Cl  Cl7  1  0.14107480  0.89530403  0.32465775  1.0
