# generated using pymatgen
data_NaCl
_symmetry_space_group_name_H-M   'P 1'
_cell_length_a   5.90048848
_cell_length_b   13.80221327
_cell_length_c   5.23134337
_cell_angle_alpha   90.00000000
_cell_angle_beta   159.99618488
_cell_angle_gamma   90.00000000
_symmetry_Int_Tables_number   1
_chemical_formula_structural   NaCl
_chemical_formula_sum   'Na4 Cl4'
_cell_volume   145.74076862
_cell_formula_units_Z   4
loop_
 _symmetry_equiv_pos_site_id
 _symmetry_equiv_pos_as_xyz
  1  'x, y, z'
loop_
 _atom_site_type_symbol
 _atom_site_label
 _atom_site_symmetry_multiplicity
 _atom_site_fract_x
 _atom_site_fract_y
 _atom_site_fract_z
 _atom_site_occupancy
  Na  Na0  1  0.64590807  0.34074167  0.96508520  1.0
  Na  Na1  1  0.80405928  0.22842315  0.91867384  1.0
  Na  Na2  1  0.54094165  0.55695850  0.89285758  1.0
  Na  Na3  1  0.86806224  0.92233359  0.99453095  1.0
  Cl  Cl4  1  0.27902026  0.99076438  0.99964392  1.0
  Cl  Cl5  1  0.01662879  0.38593449  0.73834779  1.0
  Cl  Cl6  1  0.27261948  0.33074837  0.93429230  1.0
  Cl  Cl7  1  0.48692729  0.07502364  0.32930028  1.0
