# generated using pymatgen
data_NaCl
_symmetry_space_group_name_H-M   'P 1'
_cell_length_a   4.74303468
_cell_length_b   4.74303468
_cell_length_c   13.64336263
_cell_angle_alpha   90.00000000
_cell_angle_beta   90.00000000
_cell_angle_gamma   90.00000000
_symmetry_Int_Tables_number   1
_chemical_formula_structural   NaCl
_chemical_formula_sum   'Na4 Cl4'
_cell_volume   306.92624258
_cell_formula_units_Z   4
loop_
 _symmetry_equiv_pos_site_id
 _symmetry_equiv_pos_as_xyz
  1  'x, y, z'
loop_
 _atom_site_type_symbol
 _atom_site_label
 _atom_site_symmetry_multiplicity
 _atom_site_fract_x
 _atom_site_fract_y
 _atom_site_fract_z
 _atom_site_occupancy
  Na  Na0  1  0.00000000  0.50000000  0.96599433  1.0
  Na  Na1  1  0.50000000  0.00000000  0.03847143  1.0
  Na  Na2  1  0.00000000  0.50000000  0.19745112  1.0
  Na  Na3  1  0.50000000  0.00000000  0.66106412  1.0
  Cl  Cl4  1  0.00000000  0.00000000  0.91338511  1.0
  Cl  Cl5  1  0.00000000  0.00000000  0.58330207  1.0
  Cl  Cl6  1  0.50000000  0.50000000  0.20595369  1.0
  Cl  Cl7  1  0.50000000  0.50000000  0.42348628  1.0
