# generated using pymatgen
data_NaCl
_symmetry_space_group_name_H-M   'P 1'
_cell_length_a   2.89734569
_cell_length_b   13.23355627
_cell_length_c   6.86623420
_cell_angle_alpha   90.00000000
_cell_angle_beta   131.80213177
_cell_angle_gamma   90.00000000
_symmetry_Int_Tables_number   1
_chemical_formula_structural   NaCl
_chemical_formula_sum   'Na4 Cl4'
_cell_volume   196.25228151
_cell_formula_units_Z   4
loop_
 _symmetry_equiv_pos_site_id
 _symmetry_equiv_pos_as_xyz
  1  'x, y, z'
loop_
 _atom_site_type_symbol
 _atom_site_label
 _atom_site_symmetry_multiplicity
 _atom_site_fract_x
 _atom_site_fract_y
 _atom_site_fract_z
 _atom_site_occupancy
  Na  Na0  1  0.00000000  0.50000000  0.00000000  1.0
  Na  Na1  1  0.00000000  0.50000000  0.50000000  1.0
  Na  Na2  1  0.50000000  0.38713496  0.25000000  1.0
  Na  Na3  1  0.50000000  0.93671752  0.75000000  1.0
  Cl  Cl4  1  0.06241922  0.14745534  0.86956338  1.0
  Cl  Cl5  1  0.93477123  0.56891499  0.25282523  1.0
  Cl  Cl6  1  0.50884045  0.59941453  0.12319830  1.0
  Cl  Cl7  1  0.46244058  0.00060570  0.31166528  1.0
