# generated using pymatgen
data_NaCl
_symmetry_space_group_name_H-M   'P 1'
_cell_length_a   5.35381340
_cell_length_b   15.47551336
_cell_length_c   8.25555891
_cell_angle_alpha   90.00000000
_cell_angle_beta   148.44401569
_cell_angle_gamma   90.00000000
_symmetry_Int_Tables_number   1
_chemical_formula_structural   NaCl
_chemical_formula_sum   'Na4 Cl4'
_cell_volume   357.95761120
_cell_formula_units_Z   4
loop_
 _symmetry_equiv_pos_site_id
 _symmetry_equiv_pos_as_xyz
  1  'x, y, z'
loop_
 _atom_site_type_symbol
 _atom_site_label
 _atom_site_symmetry_multiplicity
 _atom_site_fract_x
 _atom_site_fract_y
 _atom_site_fract_z
 _atom_site_occupancy
  Na  Na0  1  0.78421996  0.26266328  0.99972326  1.0
  Na  Na1  1  0.70172112  0.28918963  0.26558422  1.0
  Na  Na2  1  0.55340399  0.66239829  0.79717040  1.0
  Na  Na3  1  0.89474894  0.89798438  0.12552602  1.0
  Cl  Cl4  1  0.24949967  0.05377606  0.92339844  1.0
  Cl  Cl5  1  0.09490357  0.52567890  0.72808154  1.0
  Cl  Cl6  1  0.45790118  0.38948026  0.85967454  1.0
  Cl  Cl7  1  0.58929251  0.08319881  0.42304742  1.0
