# generated using pymatgen
data_NaCl
_symmetry_space_group_name_H-M   'P 1'
_cell_length_a   5.19379039
_cell_length_b   5.19379039
_cell_length_c   13.10200941
_cell_angle_alpha   90.00000000
_cell_angle_beta   90.00000000
_cell_angle_gamma   120.00000000
_symmetry_Int_Tables_number   1
_chemical_formula_structural   NaCl
_chemical_formula_sum   'Na4 Cl4'
_cell_volume   306.08170765
_cell_formula_units_Z   4
loop_
 _symmetry_equiv_pos_site_id
 _symmetry_equiv_pos_as_xyz
  1  'x, y, z'
loop_
 _atom_site_type_symbol
 _atom_site_label
 _atom_site_symmetry_multiplicity
 _atom_site_fract_x
 _atom_site_fract_y
 _atom_site_fract_z
 _atom_site_occupancy
  Na  Na0  1  0.33333333  0.66666667  0.92520533  1.0
  Na  Na1  1  0.66666667  0.33333333  0.58007365  1.0
  Na  Na2  1  0.33333333  0.66666667  0.55670921  1.0
  Na  Na3  1  0.66666667  0.33333333  0.31071866  1.0
  Cl  Cl4  1  0.33333333  0.66666667  0.81317715  1.0
  Cl  Cl5  1  0.66666667  0.33333333  0.93109248  1.0
  Cl  Cl6  1  0.33333333  0.66666667  0.08203669  1.0
  Cl  Cl7  1  0.66666667  0.33333333  0.04731583  1.0
