# generated using pymatgen
data_NaCl
_symmetry_space_group_name_H-M   'P 1'
_cell_length_a   13.74071362
_cell_length_b   8.20268428
_cell_length_c   10.42784932
_cell_angle_alpha   90.00000000
_cell_angle_beta   159.95749177
_cell_angle_gamma   90.00000000
_symmetry_Int_Tables_number   1
_chemical_formula_structural   NaCl
_chemical_formula_sum   'Na4 Cl4'
_cell_volume   402.80601902
_cell_formula_units_Z   4
loop_
 _symmetry_equiv_pos_site_id
 _symmetry_equiv_pos_as_xyz
  1  'x, y, z'
loop_
 _atom_site_type_symbol
 _atom_site_label
 _atom_site_symmetry_multiplicity
 _atom_site_fract_x
 _atom_site_fract_y
 _atom_site_fract_z
 _atom_site_occupancy
  Na  Na0  1  0.81763087  0.41962397  0.75657379  1.0
  Na  Na1  1  0.83282391  0.19080370  0.28653347  1.0
  Na  Na2  1  0.92229008  0.94496859  0.88800504  1.0
  Na  Na3  1  0.43240486  0.26324261  0.09023633  1.0
  Cl  Cl4  1  0.36972434  0.12286175  0.85477287  1.0
  Cl  Cl5  1  0.08261501  0.35920752  0.74043779  1.0
  Cl  Cl6  1  0.84615930  0.91338689  0.96710391  1.0
  Cl  Cl7  1  0.99450538  0.57442632  0.44672749  1.0
