# generated using pymatgen
data_NaCl
_symmetry_space_group_name_H-M   'P 1'
_cell_length_a   4.96396730
_cell_length_b   4.96396730
_cell_length_c   11.38716461
_cell_angle_alpha   90.00000000
_cell_angle_beta   90.00000000
_cell_angle_gamma   90.00000000
_symmetry_Int_Tables_number   1
_chemical_formula_structural   NaCl
_chemical_formula_sum   'Na4 Cl4'
_cell_volume   280.59079698
_cell_formula_units_Z   4
loop_
 _symmetry_equiv_pos_site_id
 _symmetry_equiv_pos_as_xyz
  1  'x, y, z'
loop_
 _atom_site_type_symbol
 _atom_site_label
 _atom_site_symmetry_multiplicity
 _atom_site_fract_x
 _atom_site_fract_y
 _atom_site_fract_z
 _atom_site_occupancy
  Na  Na0  1  0.00000000  0.50000000  0.00000000  1.0
  Na  Na1  1  0.50000000  0.00000000  0.00000000  1.0
  Na  Na2  1  0.50000000  0.50000000  0.52871866  1.0
  Na  Na3  1  0.50000000  0.50000000  0.28093374  1.0
  Cl  Cl4  1  0.09724272  0.02015144  0.00000000  1.0
  Cl  Cl5  1  0.94632068  0.24369758  0.00000000  1.0
  Cl  Cl6  1  0.64373843  0.55349832  0.00000000  1.0
  Cl  Cl7  1  0.79518112  0.79432264  0.00000000  1.0
