# generated using pymatgen
data_NaCl
_symmetry_space_group_name_H-M   'P 1'
_cell_length_a   6.82946156
_cell_length_b   6.82946156
_cell_length_c   6.82946156
_cell_angle_alpha   90.00000000
_cell_angle_beta   90.00000000
_cell_angle_gamma   90.00000000
_symmetry_Int_Tables_number   1
_chemical_formula_structural   NaCl
_chemical_formula_sum   'Na4 Cl4'
_cell_volume   318.53664004
_cell_formula_units_Z   4
loop_
 _symmetry_equiv_pos_site_id
 _symmetry_equiv_pos_as_xyz
  1  'x, y, z'
loop_
 _atom_site_type_symbol
 _atom_site_label
 _atom_site_symmetry_multiplicity
 _atom_site_fract_x
 _atom_site_fract_y
 _atom_site_fract_z
 _atom_site_occupancy
  Na  Na0  1  0.56687228  0.56687228  0.56687228  1.0
  Na  Na1  1  0.69693237  0.19693237  0.30306763  1.0
  Na  Na2  1  0.44141977  0.05858023  0.94141977  1.0
  Na  Na3  1  0.32925442  0.67074558  0.17074558  1.0
  Cl  Cl4  1  0.36393662  0.36393662  0.36393662  1.0
  Cl  Cl5  1  0.42340656  0.92340656  0.57659344  1.0
  Cl  Cl6  1  0.56315372  0.93684628  0.06315372  1.0
  Cl  Cl7  1  0.09027847  0.90972153  0.40972153  1.0
