# generated using pymatgen
data_NaCl
_symmetry_space_group_name_H-M   'P 1'
_cell_length_a   5.83908835
_cell_length_b   5.83908835
_cell_length_c   6.82576765
_cell_angle_alpha   90.00000000
_cell_angle_beta   90.00000000
_cell_angle_gamma   90.00000000
_symmetry_Int_Tables_number   1
_chemical_formula_structural   NaCl
_chemical_formula_sum   'Na4 Cl4'
_cell_volume   232.72422557
_cell_formula_units_Z   4
loop_
 _symmetry_equiv_pos_site_id
 _symmetry_equiv_pos_as_xyz
  1  'x, y, z'
loop_
 _atom_site_type_symbol
 _atom_site_label
 _atom_site_symmetry_multiplicity
 _atom_site_fract_x
 _atom_site_fract_y
 _atom_site_fract_z
 _atom_site_occupancy
  Na  Na0  1  0.79012538  0.29012538  0.00000000  1.0
  Na  Na1  1  0.24161646  0.74161646  0.00000000  1.0
  Na  Na2  1  0.10677699  0.39322301  0.00000000  1.0
  Na  Na3  1  0.63368544  0.86631456  0.00000000  1.0
  Cl  Cl4  1  0.00000000  0.00000000  0.83840781  1.0
  Cl  Cl5  1  0.00000000  0.00000000  0.58792250  1.0
  Cl  Cl6  1  0.50000000  0.50000000  0.93710579  1.0
  Cl  Cl7  1  0.50000000  0.50000000  0.06046828  1.0
