# generated using pymatgen
data_NaCl
_symmetry_space_group_name_H-M   'P 1'
_cell_length_a   4.74472133
_cell_length_b   4.74472133
_cell_length_c   10.51223820
_cell_angle_alpha   90.00000000
_cell_angle_beta   90.00000000
_cell_angle_gamma   90.00000000
_symmetry_Int_Tables_number   1
_chemical_formula_structural   NaCl
_chemical_formula_sum   'Na4 Cl4'
_cell_volume   236.65550626
_cell_formula_units_Z   4
loop_
 _symmetry_equiv_pos_site_id
 _symmetry_equiv_pos_as_xyz
  1  'x, y, z'
loop_
 _atom_site_type_symbol
 _atom_site_label
 _atom_site_symmetry_multiplicity
 _atom_site_fract_x
 _atom_site_fract_y
 _atom_site_fract_z
 _atom_site_occupancy
  Na  Na0  1  0.61496035  0.23381132  0.88698169  1.0
  Na  Na1  1  0.24003079  0.03426546  0.05145024  1.0
  Na  Na2  1  0.59123772  0.52900681  0.35004327  1.0
  Na  Na3  1  0.08801035  0.25830461  0.94087555  1.0
  Cl  Cl4  1  0.16094414  0.05913164  0.86013049  1.0
  Cl  Cl5  1  0.96129671  0.39474964  0.59624648  1.0
  Cl  Cl6  1  0.64664831  0.49621475  0.68432199  1.0
  Cl  Cl7  1  0.78979559  0.58311605  0.18275623  1.0
