# generated using pymatgen
data_NaCl
_symmetry_space_group_name_H-M   'P 1'
_cell_length_a   5.82609949
_cell_length_b   5.82609949
_cell_length_c   11.01973206
_cell_angle_alpha   90.00000000
_cell_angle_beta   90.00000000
_cell_angle_gamma   90.00000000
_symmetry_Int_Tables_number   1
_chemical_formula_structural   NaCl
_chemical_formula_sum   'Na4 Cl4'
_cell_volume   374.04756184
_cell_formula_units_Z   4
loop_
 _symmetry_equiv_pos_site_id
 _symmetry_equiv_pos_as_xyz
  1  'x, y, z'
loop_
 _atom_site_type_symbol
 _atom_site_label
 _atom_site_symmetry_multiplicity
 _atom_site_fract_x
 _atom_site_fract_y
 _atom_site_fract_z
 _atom_site_occupancy
  Na  Na0  1  0.74028842  0.17203235  0.91334021  1.0
  Na  Na1  1  0.28820259  0.11989403  0.11777526  1.0
  Na  Na2  1  0.43375090  0.60069128  0.84719785  1.0
  Na  Na3  1  0.17342177  0.18189245  0.26313556  1.0
  Cl  Cl4  1  0.01783054  0.01987339  0.94267394  1.0
  Cl  Cl5  1  0.99920624  0.36985799  0.56036232  1.0
  Cl  Cl6  1  0.62950022  0.58587156  0.24995874  1.0
  Cl  Cl7  1  0.96514062  0.67355420  0.95266675  1.0
