# generated using pymatgen
data_NaCl
_symmetry_space_group_name_H-M   'P 1'
_cell_length_a   3.02059797
_cell_length_b   14.10536307
_cell_length_c   8.02127647
_cell_angle_alpha   90.00000000
_cell_angle_beta   126.46086711
_cell_angle_gamma   90.00000000
_symmetry_Int_Tables_number   1
_chemical_formula_structural   NaCl
_chemical_formula_sum   'Na4 Cl4'
_cell_volume   274.86455279
_cell_formula_units_Z   4
loop_
 _symmetry_equiv_pos_site_id
 _symmetry_equiv_pos_as_xyz
  1  'x, y, z'
loop_
 _atom_site_type_symbol
 _atom_site_label
 _atom_site_symmetry_multiplicity
 _atom_site_fract_x
 _atom_site_fract_y
 _atom_site_fract_z
 _atom_site_occupancy
  Na  Na0  1  0.73392986  0.06978887  0.87012690  1.0
  Na  Na1  1  0.25928177  0.24350548  0.03421539  1.0
  Na  Na2  1  0.43864145  0.57050320  0.01866351  1.0
  Na  Na3  1  0.82615508  0.08267855  0.21708204  1.0
  Cl  Cl4  1  0.00000000  0.00000000  0.00000000  1.0
  Cl  Cl5  1  0.00000000  0.50000000  0.50000000  1.0
  Cl  Cl6  1  0.00000000  0.00000000  0.50000000  1.0
  Cl  Cl7  1  0.00000000  0.50000000  0.00000000  1.0
