# generated using pymatgen
data_NaCl
_symmetry_space_group_name_H-M   'P 1'
_cell_length_a   5.08926218
_cell_length_b   5.08926218
_cell_length_c   7.90443556
_cell_angle_alpha   90.00000000
_cell_angle_beta   90.00000000
_cell_angle_gamma   90.00000000
_symmetry_Int_Tables_number   1
_chemical_formula_structural   NaCl
_chemical_formula_sum   'Na4 Cl4'
_cell_volume   204.72954096
_cell_formula_units_Z   4
loop_
 _symmetry_equiv_pos_site_id
 _symmetry_equiv_pos_as_xyz
  1  'x, y, z'
loop_
 _atom_site_type_symbol
 _atom_site_label
 _atom_site_symmetry_multiplicity
 _atom_site_fract_x
 _atom_site_fract_y
 _atom_site_fract_z
 _atom_site_occupancy
  Na  Na0  1  0.54957539  0.54957539  0.86497132  1.0
  Na  Na1  1  0.08784318  0.08784318  0.59761465  1.0
  Na  Na2  1  0.91531535  0.08468465  0.14994802  1.0
  Na  Na3  1  0.15513627  0.84486373  0.01276927  1.0
  Cl  Cl4  1  0.00000000  0.50000000  0.85273427  1.0
  Cl  Cl5  1  0.00000000  0.50000000  0.68231029  1.0
  Cl  Cl6  1  0.50000000  0.00000000  0.49957096  1.0
  Cl  Cl7  1  0.50000000  0.00000000  0.86317282  1.0
