# generated using pymatgen
data_NaCl
_symmetry_space_group_name_H-M   'P 1'
_cell_length_a   2.88703988
_cell_length_b   14.32408226
_cell_length_c   9.21063945
_cell_angle_alpha   90.00000000
_cell_angle_beta   90.00000000
_cell_angle_gamma   90.00000000
_symmetry_Int_Tables_number   1
_chemical_formula_structural   NaCl
_chemical_formula_sum   'Na4 Cl4'
_cell_volume   380.89859582
_cell_formula_units_Z   4
loop_
 _symmetry_equiv_pos_site_id
 _symmetry_equiv_pos_as_xyz
  1  'x, y, z'
loop_
 _atom_site_type_symbol
 _atom_site_label
 _atom_site_symmetry_multiplicity
 _atom_site_fract_x
 _atom_site_fract_y
 _atom_site_fract_z
 _atom_site_occupancy
  Na  Na0  1  0.68070166  0.03316994  0.95656140  1.0
  Na  Na1  1  0.73013955  0.08789140  0.14606957  1.0
  Na  Na2  1  0.03266841  0.52847040  0.23065809  1.0
  Na  Na3  1  0.85574572  0.00038549  0.58237912  1.0
  Cl  Cl4  1  0.19371602  0.04838285  0.91618214  1.0
  Cl  Cl5  1  0.45180834  0.42196044  0.50022838  1.0
  Cl  Cl6  1  0.92057021  0.70897405  0.39227063  1.0
  Cl  Cl7  1  0.73517435  0.82671783  0.96284305  1.0
