# generated using pymatgen
data_NaCl
_symmetry_space_group_name_H-M   'P 1'
_cell_length_a   2.71651589
_cell_length_b   2.71651589
_cell_length_c   14.01288958
_cell_angle_alpha   90.00000000
_cell_angle_beta   90.00000000
_cell_angle_gamma   90.00000000
_symmetry_Int_Tables_number   1
_chemical_formula_structural   NaCl
_chemical_formula_sum   'Na4 Cl4'
_cell_volume   103.40753825
_cell_formula_units_Z   4
loop_
 _symmetry_equiv_pos_site_id
 _symmetry_equiv_pos_as_xyz
  1  'x, y, z'
loop_
 _atom_site_type_symbol
 _atom_site_label
 _atom_site_symmetry_multiplicity
 _atom_site_fract_x
 _atom_site_fract_y
 _atom_site_fract_z
 _atom_site_occupancy
  Na  Na0  1  0.50000000  0.00000000  0.52914359  1.0
  Na  Na1  1  0.00000000  0.50000000  0.30904630  1.0
  Na  Na2  1  0.50000000  0.00000000  0.30881912  1.0
  Na  Na3  1  0.00000000  0.50000000  0.15511709  1.0
  Cl  Cl4  1  0.60843437  0.10843437  0.90750893  1.0
  Cl  Cl5  1  0.80124472  0.30124472  0.63928263  1.0
  Cl  Cl6  1  0.77754915  0.72245085  0.89481267  1.0
  Cl  Cl7  1  0.98631756  0.51368244  0.40587240  1.0
