# generated using pymatgen
data_NaCl
_symmetry_space_group_name_H-M   'P 1'
_cell_length_a   6.32767406
_cell_length_b   6.32767406
_cell_length_c   6.09836465
_cell_angle_alpha   90.00000000
_cell_angle_beta   90.00000000
_cell_angle_gamma   90.00000000
_symmetry_Int_Tables_number   1
_chemical_formula_structural   NaCl
_chemical_formula_sum   'Na4 Cl4'
_cell_volume   244.17522143
_cell_formula_units_Z   4
loop_
 _symmetry_equiv_pos_site_id
 _symmetry_equiv_pos_as_xyz
  1  'x, y, z'
loop_
 _atom_site_type_symbol
 _atom_site_label
 _atom_site_symmetry_multiplicity
 _atom_site_fract_x
 _atom_site_fract_y
 _atom_site_fract_z
 _atom_site_occupancy
  Na  Na0  1  0.64991238  0.42787664  0.76991430  1.0
  Na  Na1  1  0.24742245  0.10078025  0.22025250  1.0
  Na  Na2  1  0.75441941  0.73616111  0.54387668  1.0
  Na  Na3  1  0.01758128  0.34772278  0.72887629  1.0
  Cl  Cl4  1  0.11851832  0.06383394  0.85862612  1.0
  Cl  Cl5  1  0.93805462  0.53721643  0.71440721  1.0
  Cl  Cl6  1  0.61466600  0.29105124  0.62181669  1.0
  Cl  Cl7  1  0.89854364  0.59011287  0.02390207  1.0
