# generated using pymatgen
data_NaCl
_symmetry_space_group_name_H-M   'P 1'
_cell_length_a   4.89747787
_cell_length_b   11.52453103
_cell_length_c   10.42779569
_cell_angle_alpha   43.55398342
_cell_angle_beta   111.81241820
_cell_angle_gamma   144.71472159
_symmetry_Int_Tables_number   1
_chemical_formula_structural   NaCl
_chemical_formula_sum   'Na4 Cl4'
_cell_volume   195.21511008
_cell_formula_units_Z   4
loop_
 _symmetry_equiv_pos_site_id
 _symmetry_equiv_pos_as_xyz
  1  'x, y, z'
loop_
 _atom_site_type_symbol
 _atom_site_label
 _atom_site_symmetry_multiplicity
 _atom_site_fract_x
 _atom_site_fract_y
 _atom_site_fract_z
 _atom_site_occupancy
  Na  Na0  1  0.00000000  0.00000000  0.00000000  1.0
  Na  Na1  1  0.50000000  0.50000000  0.50000000  1.0
  Na  Na2  1  0.58285218  0.35519226  0.53588215  1.0
  Na  Na3  1  0.29783909  0.99942872  0.27177804  1.0
  Cl  Cl4  1  0.00000000  0.00000000  0.50000000  1.0
  Cl  Cl5  1  0.00000000  0.50000000  0.00000000  1.0
  Cl  Cl6  1  0.50000000  0.00000000  0.00000000  1.0
  Cl  Cl7  1  0.50000000  0.00000000  0.50000000  1.0
