# generated using pymatgen
data_NaCl
_symmetry_space_group_name_H-M   'P 1'
_cell_length_a   7.39431544
_cell_length_b   7.39431544
_cell_length_c   7.07090636
_cell_angle_alpha   90.00000000
_cell_angle_beta   90.00000000
_cell_angle_gamma   90.00000000
_symmetry_Int_Tables_number   1
_chemical_formula_structural   NaCl
_chemical_formula_sum   'Na4 Cl4'
_cell_volume   386.60817489
_cell_formula_units_Z   4
loop_
 _symmetry_equiv_pos_site_id
 _symmetry_equiv_pos_as_xyz
  1  'x, y, z'
loop_
 _atom_site_type_symbol
 _atom_site_label
 _atom_site_symmetry_multiplicity
 _atom_site_fract_x
 _atom_site_fract_y
 _atom_site_fract_z
 _atom_site_occupancy
  Na  Na0  1  0.63520516  0.09813396  0.88435663  1.0
  Na  Na1  1  0.15669331  0.58374522  0.95747281  1.0
  Na  Na2  1  0.62520242  0.44964677  0.24688292  1.0
  Na  Na3  1  0.05638068  0.11300378  0.35057863  1.0
  Cl  Cl4  1  0.38294059  0.72791526  0.79296432  1.0
  Cl  Cl5  1  0.91252441  0.41374627  0.79705951  1.0
  Cl  Cl6  1  0.66225128  0.21799576  0.03081655  1.0
  Cl  Cl7  1  0.84033727  0.31975042  0.54352711  1.0
