# generated using pymatgen
data_NaCl
_symmetry_space_group_name_H-M   'P 1'
_cell_length_a   7.73879444
_cell_length_b   13.17624296
_cell_length_c   3.67811574
_cell_angle_alpha   90.00000000
_cell_angle_beta   90.00000000
_cell_angle_gamma   90.00000000
_symmetry_Int_Tables_number   1
_chemical_formula_structural   NaCl
_chemical_formula_sum   'Na4 Cl4'
_cell_volume   375.05097292
_cell_formula_units_Z   4
loop_
 _symmetry_equiv_pos_site_id
 _symmetry_equiv_pos_as_xyz
  1  'x, y, z'
loop_
 _atom_site_type_symbol
 _atom_site_label
 _atom_site_symmetry_multiplicity
 _atom_site_fract_x
 _atom_site_fract_y
 _atom_site_fract_z
 _atom_site_occupancy
  Na  Na0  1  0.25000000  0.26015240  0.99882659  1.0
  Na  Na1  1  0.75000000  0.30874023  0.76338797  1.0
  Na  Na2  1  0.25000000  0.89564727  0.46383544  1.0
  Na  Na3  1  0.75000000  0.49808087  0.18079461  1.0
  Cl  Cl4  1  0.00000000  0.00000000  0.88782404  1.0
  Cl  Cl5  1  0.50000000  0.00000000  0.12750453  1.0
  Cl  Cl6  1  0.00000000  0.50000000  0.41231755  1.0
  Cl  Cl7  1  0.50000000  0.50000000  0.42674415  1.0
