# generated using pymatgen
data_NaCl
_symmetry_space_group_name_H-M   'P 1'
_cell_length_a   6.21046099
_cell_length_b   11.09846267
_cell_length_c   6.93654715
_cell_angle_alpha   90.00000000
_cell_angle_beta   155.44102073
_cell_angle_gamma   90.00000000
_symmetry_Int_Tables_number   1
_chemical_formula_structural   NaCl
_chemical_formula_sum   'Na4 Cl4'
_cell_volume   198.71772296
_cell_formula_units_Z   4
loop_
 _symmetry_equiv_pos_site_id
 _symmetry_equiv_pos_as_xyz
  1  'x, y, z'
loop_
 _atom_site_type_symbol
 _atom_site_label
 _atom_site_symmetry_multiplicity
 _atom_site_fract_x
 _atom_site_fract_y
 _atom_site_fract_z
 _atom_site_occupancy
  Na  Na0  1  0.77851256  0.33673163  0.95296421  1.0
  Na  Na1  1  0.17337770  0.37799191  0.61368816  1.0
  Na  Na2  1  0.48701240  0.54895616  0.92616830  1.0
  Na  Na3  1  0.40235469  0.55131214  0.41751985  1.0
  Cl  Cl4  1  0.14964987  0.21142781  0.98548432  1.0
  Cl  Cl5  1  0.84060524  0.13444856  0.83877789  1.0
  Cl  Cl6  1  0.16956993  0.43973242  0.76639341  1.0
  Cl  Cl7  1  0.57200922  0.44677706  0.14400482  1.0
