# generated using pymatgen
data_NaCl
_symmetry_space_group_name_H-M   'P 1'
_cell_length_a   6.30645173
_cell_length_b   6.30645173
_cell_length_c   4.59337471
_cell_angle_alpha   90.00000000
_cell_angle_beta   90.00000000
_cell_angle_gamma   90.00000000
_symmetry_Int_Tables_number   1
_chemical_formula_structural   NaCl
_chemical_formula_sum   'Na4 Cl4'
_cell_volume   182.68463713
_cell_formula_units_Z   4
loop_
 _symmetry_equiv_pos_site_id
 _symmetry_equiv_pos_as_xyz
  1  'x, y, z'
loop_
 _atom_site_type_symbol
 _atom_site_label
 _atom_site_symmetry_multiplicity
 _atom_site_fract_x
 _atom_site_fract_y
 _atom_site_fract_z
 _atom_site_occupancy
  Na  Na0  1  0.73541082  0.23410597  0.97320415  1.0
  Na  Na1  1  0.11769656  0.68819115  0.07698511  1.0
  Na  Na2  1  0.57532351  0.63230392  0.22796086  1.0
  Na  Na3  1  0.15358011  0.17586217  0.49414044  1.0
  Cl  Cl4  1  0.11943762  0.10674106  0.81794173  1.0
  Cl  Cl5  1  0.93173432  0.70352396  0.84349190  1.0
  Cl  Cl6  1  0.50839441  0.46030640  0.13337347  1.0
  Cl  Cl7  1  0.80203216  0.53401940  0.74859861  1.0
