# generated using pymatgen
data_NaCl
_symmetry_space_group_name_H-M   'P 1'
_cell_length_a   5.80817390
_cell_length_b   5.80817390
_cell_length_c   12.09445816
_cell_angle_alpha   90.00000000
_cell_angle_beta   90.00000000
_cell_angle_gamma   90.00000000
_symmetry_Int_Tables_number   1
_chemical_formula_structural   NaCl
_chemical_formula_sum   'Na4 Cl4'
_cell_volume   408.00514371
_cell_formula_units_Z   4
loop_
 _symmetry_equiv_pos_site_id
 _symmetry_equiv_pos_as_xyz
  1  'x, y, z'
loop_
 _atom_site_type_symbol
 _atom_site_label
 _atom_site_symmetry_multiplicity
 _atom_site_fract_x
 _atom_site_fract_y
 _atom_site_fract_z
 _atom_site_occupancy
  Na  Na0  1  0.77235395  0.10930542  0.91510635  1.0
  Na  Na1  1  0.03304543  0.16069988  0.93231894  1.0
  Na  Na2  1  0.65208352  0.45926795  0.77138189  1.0
  Na  Na3  1  0.01814791  0.47309505  0.38677841  1.0
  Cl  Cl4  1  0.24128874  0.14886786  0.85496398  1.0
  Cl  Cl5  1  0.85312373  0.28807053  0.64269084  1.0
  Cl  Cl6  1  0.17527141  0.56815211  0.24938554  1.0
  Cl  Cl7  1  0.73596895  0.81558211  0.96596931  1.0
