# generated using pymatgen
data_NaCl
_symmetry_space_group_name_H-M   'P 1'
_cell_length_a   3.23246512
_cell_length_b   3.23246512
_cell_length_c   8.06398499
_cell_angle_alpha   90.00000000
_cell_angle_beta   90.00000000
_cell_angle_gamma   90.00000000
_symmetry_Int_Tables_number   1
_chemical_formula_structural   NaCl
_chemical_formula_sum   'Na4 Cl4'
_cell_volume   84.25921435
_cell_formula_units_Z   4
loop_
 _symmetry_equiv_pos_site_id
 _symmetry_equiv_pos_as_xyz
  1  'x, y, z'
loop_
 _atom_site_type_symbol
 _atom_site_label
 _atom_site_symmetry_multiplicity
 _atom_site_fract_x
 _atom_site_fract_y
 _atom_site_fract_z
 _atom_site_occupancy
  Na  Na0  1  0.63290455  0.15136935  0.99969425  1.0
  Na  Na1  1  0.22466274  0.03411618  0.20941148  1.0
  Na  Na2  1  0.63132139  0.52394536  0.31914484  1.0
  Na  Na3  1  0.01802429  0.49638266  0.91597210  1.0
  Cl  Cl4  1  0.24907233  0.13807656  0.92073027  1.0
  Cl  Cl5  1  0.17965103  0.39753588  0.56550814  1.0
  Cl  Cl6  1  0.68838529  0.56433699  0.73317761  1.0
  Cl  Cl7  1  0.90808443  0.72712289  0.20278458  1.0
