# generated using pymatgen
data_NaCl
_symmetry_space_group_name_H-M   'P 1'
_cell_length_a   6.81281784
_cell_length_b   6.81281784
_cell_length_c   7.84640853
_cell_angle_alpha   90.00000000
_cell_angle_beta   90.00000000
_cell_angle_gamma   90.00000000
_symmetry_Int_Tables_number   1
_chemical_formula_structural   NaCl
_chemical_formula_sum   'Na4 Cl4'
_cell_volume   364.18702609
_cell_formula_units_Z   4
loop_
 _symmetry_equiv_pos_site_id
 _symmetry_equiv_pos_as_xyz
  1  'x, y, z'
loop_
 _atom_site_type_symbol
 _atom_site_label
 _atom_site_symmetry_multiplicity
 _atom_site_fract_x
 _atom_site_fract_y
 _atom_site_fract_z
 _atom_site_occupancy
  Na  Na0  1  0.00000000  0.00000000  0.87480085  1.0
  Na  Na1  1  0.00000000  0.50000000  0.67679727  1.0
  Na  Na2  1  0.50000000  0.00000000  0.65303498  1.0
  Na  Na3  1  0.50000000  0.50000000  0.55309747  1.0
  Cl  Cl4  1  0.24510291  0.09849800  0.97924107  1.0
  Cl  Cl5  1  0.88941461  0.40898977  0.02300867  1.0
  Cl  Cl6  1  0.54530772  0.63484513  0.93733831  1.0
  Cl  Cl7  1  0.88721266  0.81346113  0.85232452  1.0
