# generated using pymatgen
data_NaCl
_symmetry_space_group_name_H-M   'P 1'
_cell_length_a   2.50071850
_cell_length_b   12.35956836
_cell_length_c   8.11723376
_cell_angle_alpha   90.00000000
_cell_angle_beta   90.00000000
_cell_angle_gamma   90.00000000
_symmetry_Int_Tables_number   1
_chemical_formula_structural   NaCl
_chemical_formula_sum   'Na4 Cl4'
_cell_volume   250.88584775
_cell_formula_units_Z   4
loop_
 _symmetry_equiv_pos_site_id
 _symmetry_equiv_pos_as_xyz
  1  'x, y, z'
loop_
 _atom_site_type_symbol
 _atom_site_label
 _atom_site_symmetry_multiplicity
 _atom_site_fract_x
 _atom_site_fract_y
 _atom_site_fract_z
 _atom_site_occupancy
  Na  Na0  1  0.72619341  0.08973522  0.88217817  1.0
  Na  Na1  1  0.79833547  0.05484018  0.14099408  1.0
  Na  Na2  1  0.49036300  0.69118073  0.95696948  1.0
  Na  Na3  1  0.15405622  0.46093669  0.33133307  1.0
  Cl  Cl4  1  0.08905222  0.00053929  0.89074784  1.0
  Cl  Cl5  1  0.49949610  0.48514484  0.51878848  1.0
  Cl  Cl6  1  0.31768293  0.84614815  0.35679388  1.0
  Cl  Cl7  1  0.83950619  0.74008549  0.00020625  1.0
