# generated using pymatgen
data_NaCl
_symmetry_space_group_name_H-M   'P 1'
_cell_length_a   5.41568332
_cell_length_b   5.41568332
_cell_length_c   5.41568332
_cell_angle_alpha   90.00000000
_cell_angle_beta   90.00000000
_cell_angle_gamma   90.00000000
_symmetry_Int_Tables_number   1
_chemical_formula_structural   NaCl
_chemical_formula_sum   'Na4 Cl4'
_cell_volume   158.83996535
_cell_formula_units_Z   4
loop_
 _symmetry_equiv_pos_site_id
 _symmetry_equiv_pos_as_xyz
  1  'x, y, z'
loop_
 _atom_site_type_symbol
 _atom_site_label
 _atom_site_symmetry_multiplicity
 _atom_site_fract_x
 _atom_site_fract_y
 _atom_site_fract_z
 _atom_site_occupancy
  Na  Na0  1  0.73047813  0.73047813  0.73047813  1.0
  Na  Na1  1  0.73734929  0.23734929  0.26265071  1.0
  Na  Na2  1  0.38548692  0.11451308  0.88548692  1.0
  Na  Na3  1  0.14418923  0.85581077  0.35581077  1.0
  Cl  Cl4  1  0.18466426  0.18466426  0.18466426  1.0
  Cl  Cl5  1  0.44952974  0.94952974  0.55047026  1.0
  Cl  Cl6  1  0.54886554  0.95113446  0.04886554  1.0
  Cl  Cl7  1  0.85208105  0.14791895  0.64791895  1.0
