# generated using pymatgen
data_NaCl
_symmetry_space_group_name_H-M   'P 1'
_cell_length_a   3.17763460
_cell_length_b   12.16934780
_cell_length_c   8.14209009
_cell_angle_alpha   90.00000000
_cell_angle_beta   90.00000000
_cell_angle_gamma   90.00000000
_symmetry_Int_Tables_number   1
_chemical_formula_structural   NaCl
_chemical_formula_sum   'Na4 Cl4'
_cell_volume   314.85251196
_cell_formula_units_Z   4
loop_
 _symmetry_equiv_pos_site_id
 _symmetry_equiv_pos_as_xyz
  1  'x, y, z'
loop_
 _atom_site_type_symbol
 _atom_site_label
 _atom_site_symmetry_multiplicity
 _atom_site_fract_x
 _atom_site_fract_y
 _atom_site_fract_z
 _atom_site_occupancy
  Na  Na0  1  0.00000000  0.50000000  0.88172064  1.0
  Na  Na1  1  0.50000000  0.50000000  0.70847454  1.0
  Na  Na2  1  0.25000000  0.25655094  0.67461873  1.0
  Na  Na3  1  0.75000000  0.95296641  0.66700142  1.0
  Cl  Cl4  1  0.22250960  0.12298733  0.29936297  1.0
  Cl  Cl5  1  0.97750532  0.42188961  0.33789955  1.0
  Cl  Cl6  1  0.02027208  0.61278427  0.65068101  1.0
  Cl  Cl7  1  0.24639518  0.87110508  0.96587217  1.0
