# generated using pymatgen
data_NaCl
_symmetry_space_group_name_H-M   'P 1'
_cell_length_a   7.43620544
_cell_length_b   6.12556656
_cell_length_c   5.61038879
_cell_angle_alpha   90.00000000
_cell_angle_beta   90.00000000
_cell_angle_gamma   90.00000000
_symmetry_Int_Tables_number   1
_chemical_formula_structural   NaCl
_chemical_formula_sum   'Na4 Cl4'
_cell_volume   255.55865918
_cell_formula_units_Z   4
loop_
 _symmetry_equiv_pos_site_id
 _symmetry_equiv_pos_as_xyz
  1  'x, y, z'
loop_
 _atom_site_type_symbol
 _atom_site_label
 _atom_site_symmetry_multiplicity
 _atom_site_fract_x
 _atom_site_fract_y
 _atom_site_fract_z
 _atom_site_occupancy
  Na  Na0  1  0.65020233  0.25000000  0.90192048  1.0
  Na  Na1  1  0.32309965  0.75000000  0.35640258  1.0
  Na  Na2  1  0.53677178  0.75000000  0.31270929  1.0
  Na  Na3  1  0.24954336  0.25000000  0.06107273  1.0
  Cl  Cl4  1  0.50000000  0.00000000  0.76457814  1.0
  Cl  Cl5  1  0.50000000  0.50000000  0.12745794  1.0
  Cl  Cl6  1  0.50000000  0.50000000  0.49960768  1.0
  Cl  Cl7  1  0.50000000  0.00000000  0.37481832  1.0
