# generated using pymatgen
data_NaCl
_symmetry_space_group_name_H-M   'P 1'
_cell_length_a   5.27538391
_cell_length_b   5.27538391
_cell_length_c   5.27538391
_cell_angle_alpha   90.00000000
_cell_angle_beta   90.00000000
_cell_angle_gamma   90.00000000
_symmetry_Int_Tables_number   1
_chemical_formula_structural   NaCl
_chemical_formula_sum   'Na4 Cl4'
_cell_volume   146.81222181
_cell_formula_units_Z   4
loop_
 _symmetry_equiv_pos_site_id
 _symmetry_equiv_pos_as_xyz
  1  'x, y, z'
loop_
 _atom_site_type_symbol
 _atom_site_label
 _atom_site_symmetry_multiplicity
 _atom_site_fract_x
 _atom_site_fract_y
 _atom_site_fract_z
 _atom_site_occupancy
  Na  Na0  1  0.79193182  0.79193182  0.79193182  1.0
  Na  Na1  1  0.86563577  0.36563577  0.13436423  1.0
  Na  Na2  1  0.33845267  0.16154733  0.83845267  1.0
  Na  Na3  1  0.16865467  0.83134533  0.33134533  1.0
  Cl  Cl4  1  0.00973906  0.00973906  0.00973906  1.0
  Cl  Cl5  1  0.47235854  0.97235854  0.52764146  1.0
  Cl  Cl6  1  0.18282703  0.31717297  0.68282703  1.0
  Cl  Cl7  1  0.76230680  0.23769320  0.73769320  1.0
