# generated using pymatgen
data_NaCl
_symmetry_space_group_name_H-M   'P 1'
_cell_length_a   5.01272913
_cell_length_b   5.01272913
_cell_length_c   8.91776447
_cell_angle_alpha   90.00000000
_cell_angle_beta   90.00000000
_cell_angle_gamma   90.00000000
_symmetry_Int_Tables_number   1
_chemical_formula_structural   NaCl
_chemical_formula_sum   'Na4 Cl4'
_cell_volume   224.08071053
_cell_formula_units_Z   4
loop_
 _symmetry_equiv_pos_site_id
 _symmetry_equiv_pos_as_xyz
  1  'x, y, z'
loop_
 _atom_site_type_symbol
 _atom_site_label
 _atom_site_symmetry_multiplicity
 _atom_site_fract_x
 _atom_site_fract_y
 _atom_site_fract_z
 _atom_site_occupancy
  Na  Na0  1  0.60293712  0.14678987  0.99990655  1.0
  Na  Na1  1  0.19597808  0.08375776  0.04984778  1.0
  Na  Na2  1  0.52442618  0.55327623  0.78053618  1.0
  Na  Na3  1  0.04958136  0.38499341  0.38204463  1.0
  Cl  Cl4  1  0.16853156  0.00019359  0.77188956  1.0
  Cl  Cl5  1  0.87811676  0.37697457  0.51961281  1.0
  Cl  Cl6  1  0.59425686  0.53635156  0.55825208  1.0
  Cl  Cl7  1  0.76134922  0.66196882  0.65238886  1.0
