# generated using pymatgen
data_NaCl
_symmetry_space_group_name_H-M   'P 1'
_cell_length_a   5.85298757
_cell_length_b   6.78041772
_cell_length_c   5.12375754
_cell_angle_alpha   90.00000000
_cell_angle_beta   90.00000000
_cell_angle_gamma   90.00000000
_symmetry_Int_Tables_number   1
_chemical_formula_structural   NaCl
_chemical_formula_sum   'Na4 Cl4'
_cell_volume   203.33990786
_cell_formula_units_Z   4
loop_
 _symmetry_equiv_pos_site_id
 _symmetry_equiv_pos_as_xyz
  1  'x, y, z'
loop_
 _atom_site_type_symbol
 _atom_site_label
 _atom_site_symmetry_multiplicity
 _atom_site_fract_x
 _atom_site_fract_y
 _atom_site_fract_z
 _atom_site_occupancy
  Na  Na0  1  0.49241627  0.54272977  0.26893269  1.0
  Na  Na1  1  0.45793030  0.21716847  0.16253530  1.0
  Na  Na2  1  0.61478001  0.80941507  0.92828533  1.0
  Na  Na3  1  0.28790045  0.46877262  0.49809318  1.0
  Cl  Cl4  1  0.20191992  0.02925763  0.18287694  1.0
  Cl  Cl5  1  0.33224192  0.06583426  0.81195854  1.0
  Cl  Cl6  1  0.11742224  0.06703385  0.70423803  1.0
  Cl  Cl7  1  0.69346669  0.51519684  0.91780767  1.0
