# generated using pymatgen
data_NaCl
_symmetry_space_group_name_H-M   'P 1'
_cell_length_a   5.48818115
_cell_length_b   5.48818115
_cell_length_c   5.48818115
_cell_angle_alpha   90.00000000
_cell_angle_beta   90.00000000
_cell_angle_gamma   90.00000000
_symmetry_Int_Tables_number   1
_chemical_formula_structural   NaCl
_chemical_formula_sum   'Na4 Cl4'
_cell_volume   165.30474252
_cell_formula_units_Z   4
loop_
 _symmetry_equiv_pos_site_id
 _symmetry_equiv_pos_as_xyz
  1  'x, y, z'
loop_
 _atom_site_type_symbol
 _atom_site_label
 _atom_site_symmetry_multiplicity
 _atom_site_fract_x
 _atom_site_fract_y
 _atom_site_fract_z
 _atom_site_occupancy
  Na  Na0  1  0.85882314  0.85882314  0.85882314  1.0
  Na  Na1  1  0.17371051  0.67371051  0.82628949  1.0
  Na  Na2  1  0.55353205  0.94646795  0.05353205  1.0
  Na  Na3  1  0.68435600  0.31564400  0.81564400  1.0
  Cl  Cl4  1  0.13593910  0.13593910  0.13593910  1.0
  Cl  Cl5  1  0.00113792  0.50113792  0.99886208  1.0
  Cl  Cl6  1  0.42993401  0.07006599  0.92993401  1.0
  Cl  Cl7  1  0.02228858  0.97771142  0.47771142  1.0
