# generated using pymatgen
data_NaCl
_symmetry_space_group_name_H-M   'P 1'
_cell_length_a   4.13458324
_cell_length_b   5.87525838
_cell_length_c   12.50337236
_cell_angle_alpha   90.00000000
_cell_angle_beta   90.00000000
_cell_angle_gamma   90.00000000
_symmetry_Int_Tables_number   1
_chemical_formula_structural   NaCl
_chemical_formula_sum   'Na4 Cl4'
_cell_volume   303.72873087
_cell_formula_units_Z   4
loop_
 _symmetry_equiv_pos_site_id
 _symmetry_equiv_pos_as_xyz
  1  'x, y, z'
loop_
 _atom_site_type_symbol
 _atom_site_label
 _atom_site_symmetry_multiplicity
 _atom_site_fract_x
 _atom_site_fract_y
 _atom_site_fract_z
 _atom_site_occupancy
  Na  Na0  1  0.40963762  0.83411164  0.36044443  1.0
  Na  Na1  1  0.01576656  0.11776092  0.93578067  1.0
  Na  Na2  1  0.64827929  0.35824701  0.06240244  1.0
  Na  Na3  1  0.86303220  0.75180552  0.18125056  1.0
  Cl  Cl4  1  0.29216398  0.47310987  0.10751068  1.0
  Cl  Cl5  1  0.94967312  0.19138677  0.28739786  1.0
  Cl  Cl6  1  0.50150627  0.38026434  0.51994392  1.0
  Cl  Cl7  1  0.07818944  0.46061898  0.78976679  1.0
