# generated using pymatgen
data_NaCl
_symmetry_space_group_name_H-M   'P 1'
_cell_length_a   6.82648423
_cell_length_b   5.74262146
_cell_length_c   8.52755281
_cell_angle_alpha   90.00000000
_cell_angle_beta   90.00000000
_cell_angle_gamma   90.00000000
_symmetry_Int_Tables_number   1
_chemical_formula_structural   NaCl
_chemical_formula_sum   'Na4 Cl4'
_cell_volume   334.29639901
_cell_formula_units_Z   4
loop_
 _symmetry_equiv_pos_site_id
 _symmetry_equiv_pos_as_xyz
  1  'x, y, z'
loop_
 _atom_site_type_symbol
 _atom_site_label
 _atom_site_symmetry_multiplicity
 _atom_site_fract_x
 _atom_site_fract_y
 _atom_site_fract_z
 _atom_site_occupancy
  Na  Na0  1  0.25000000  0.69909838  0.18006702  1.0
  Na  Na1  1  0.75000000  0.06859034  0.42556681  1.0
  Na  Na2  1  0.75000000  0.38557419  0.23407431  1.0
  Na  Na3  1  0.25000000  0.91163440  0.49779789  1.0
  Cl  Cl4  1  0.25000000  0.04304098  0.24283840  1.0
  Cl  Cl5  1  0.75000000  0.10760076  0.81904278  1.0
  Cl  Cl6  1  0.75000000  0.81852711  0.37110126  1.0
  Cl  Cl7  1  0.25000000  0.21500357  0.12359853  1.0
