# generated using pymatgen
data_NaCl
_symmetry_space_group_name_H-M   'P 1'
_cell_length_a   6.89156306
_cell_length_b   6.30451573
_cell_length_c   5.11233215
_cell_angle_alpha   90.00000000
_cell_angle_beta   57.94969899
_cell_angle_gamma   90.00000000
_symmetry_Int_Tables_number   1
_chemical_formula_structural   NaCl
_chemical_formula_sum   'Na4 Cl4'
_cell_volume   188.26540939
_cell_formula_units_Z   4
loop_
 _symmetry_equiv_pos_site_id
 _symmetry_equiv_pos_as_xyz
  1  'x, y, z'
loop_
 _atom_site_type_symbol
 _atom_site_label
 _atom_site_symmetry_multiplicity
 _atom_site_fract_x
 _atom_site_fract_y
 _atom_site_fract_z
 _atom_site_occupancy
  Na  Na0  1  0.38343005  0.56038464  0.38711050  1.0
  Na  Na1  1  0.58607163  0.05472990  0.05948556  1.0
  Na  Na2  1  0.07433580  0.40820338  0.69422311  1.0
  Na  Na3  1  0.21800802  0.58569465  0.05922987  1.0
  Cl  Cl4  1  0.05201854  0.28415530  0.20652854  1.0
  Cl  Cl5  1  0.62441754  0.02030592  0.65316015  1.0
  Cl  Cl6  1  0.26630455  0.25395729  0.93147369  1.0
  Cl  Cl7  1  0.94017476  0.31502912  0.01862712  1.0
