# generated using pymatgen
data_NaCl
_symmetry_space_group_name_H-M   'P 1'
_cell_length_a   6.43911947
_cell_length_b   8.97967573
_cell_length_c   6.40701760
_cell_angle_alpha   90.00000000
_cell_angle_beta   90.00000000
_cell_angle_gamma   90.00000000
_symmetry_Int_Tables_number   1
_chemical_formula_structural   NaCl
_chemical_formula_sum   'Na4 Cl4'
_cell_volume   370.46147698
_cell_formula_units_Z   4
loop_
 _symmetry_equiv_pos_site_id
 _symmetry_equiv_pos_as_xyz
  1  'x, y, z'
loop_
 _atom_site_type_symbol
 _atom_site_label
 _atom_site_symmetry_multiplicity
 _atom_site_fract_x
 _atom_site_fract_y
 _atom_site_fract_z
 _atom_site_occupancy
  Na  Na0  1  0.46563584  0.49288187  0.00000000  1.0
  Na  Na1  1  0.56408474  0.18044008  0.00000000  1.0
  Na  Na2  1  0.85799511  0.03892143  0.00000000  1.0
  Na  Na3  1  0.64720751  0.78359948  0.00000000  1.0
  Cl  Cl4  1  0.48138926  0.14241533  0.50000000  1.0
  Cl  Cl5  1  0.83549803  0.18792925  0.50000000  1.0
  Cl  Cl6  1  0.98569055  0.01802228  0.50000000  1.0
  Cl  Cl7  1  0.94798003  0.42997918  0.50000000  1.0
