# generated using pymatgen
data_NaCl
_symmetry_space_group_name_H-M   'P 1'
_cell_length_a   7.78822860
_cell_length_b   5.38233600
_cell_length_c   5.39333826
_cell_angle_alpha   90.00000000
_cell_angle_beta   90.00000000
_cell_angle_gamma   90.00000000
_symmetry_Int_Tables_number   1
_chemical_formula_structural   NaCl
_chemical_formula_sum   'Na4 Cl4'
_cell_volume   226.08260855
_cell_formula_units_Z   4
loop_
 _symmetry_equiv_pos_site_id
 _symmetry_equiv_pos_as_xyz
  1  'x, y, z'
loop_
 _atom_site_type_symbol
 _atom_site_label
 _atom_site_symmetry_multiplicity
 _atom_site_fract_x
 _atom_site_fract_y
 _atom_site_fract_z
 _atom_site_occupancy
  Na  Na0  1  0.00000000  0.61911774  0.29186590  1.0
  Na  Na1  1  0.00000000  0.22398674  0.59009313  1.0
  Na  Na2  1  0.50000000  0.28236624  0.54744110  1.0
  Na  Na3  1  0.50000000  0.56157367  0.41801025  1.0
  Cl  Cl4  1  0.00000000  0.09104581  0.15710275  1.0
  Cl  Cl5  1  0.00000000  0.06254804  0.38380395  1.0
  Cl  Cl6  1  0.50000000  0.18612193  0.87247140  1.0
  Cl  Cl7  1  0.50000000  0.33027566  0.78402950  1.0
