# generated using pymatgen
data_NaCl
_symmetry_space_group_name_H-M   'P 1'
_cell_length_a   5.32268838
_cell_length_b   8.31504212
_cell_length_c   8.10981203
_cell_angle_alpha   90.00000000
_cell_angle_beta   90.00000000
_cell_angle_gamma   90.00000000
_symmetry_Int_Tables_number   1
_chemical_formula_structural   NaCl
_chemical_formula_sum   'Na4 Cl4'
_cell_volume   358.92712691
_cell_formula_units_Z   4
loop_
 _symmetry_equiv_pos_site_id
 _symmetry_equiv_pos_as_xyz
  1  'x, y, z'
loop_
 _atom_site_type_symbol
 _atom_site_label
 _atom_site_symmetry_multiplicity
 _atom_site_fract_x
 _atom_site_fract_y
 _atom_site_fract_z
 _atom_site_occupancy
  Na  Na0  1  0.96110849  0.78999805  0.36447245  1.0
  Na  Na1  1  0.59754174  0.06855680  0.67862176  1.0
  Na  Na2  1  0.25297474  0.59531318  0.66329757  1.0
  Na  Na3  1  0.31463680  0.74945354  0.27084447  1.0
  Cl  Cl4  1  0.25548408  0.35105360  0.12162989  1.0
  Cl  Cl5  1  0.19698897  0.05399455  0.28399134  1.0
  Cl  Cl6  1  0.74833992  0.12705645  0.84352577  1.0
  Cl  Cl7  1  0.66441001  0.00093464  0.95327812  1.0
