# generated using pymatgen
data_NaCl
_symmetry_space_group_name_H-M   'P 1'
_cell_length_a   6.74767601
_cell_length_b   2.97168518
_cell_length_c   6.06224620
_cell_angle_alpha   90.00000000
_cell_angle_beta   84.09929037
_cell_angle_gamma   90.00000000
_symmetry_Int_Tables_number   1
_chemical_formula_structural   NaCl
_chemical_formula_sum   'Na4 Cl4'
_cell_volume   120.91589148
_cell_formula_units_Z   4
loop_
 _symmetry_equiv_pos_site_id
 _symmetry_equiv_pos_as_xyz
  1  'x, y, z'
loop_
 _atom_site_type_symbol
 _atom_site_label
 _atom_site_symmetry_multiplicity
 _atom_site_fract_x
 _atom_site_fract_y
 _atom_site_fract_z
 _atom_site_occupancy
  Na  Na0  1  0.58309343  0.59255477  0.34638900  1.0
  Na  Na1  1  0.50632787  0.16596545  0.78161016  1.0
  Na  Na2  1  0.03928124  0.19346083  0.51110875  1.0
  Na  Na3  1  0.01899430  0.62769841  0.36076120  1.0
  Cl  Cl4  1  0.22052222  0.21365138  0.22492110  1.0
  Cl  Cl5  1  0.56924396  0.07345472  0.21311884  1.0
  Cl  Cl6  1  0.00587962  0.89155411  0.05453113  1.0
  Cl  Cl7  1  0.95442761  0.42276070  0.97330288  1.0
