# generated using pymatgen
data_NaCl
_symmetry_space_group_name_H-M   'P 1'
_cell_length_a   4.84570656
_cell_length_b   12.03419512
_cell_length_c   5.86826355
_cell_angle_alpha   90.00000000
_cell_angle_beta   85.13926070
_cell_angle_gamma   90.00000000
_symmetry_Int_Tables_number   1
_chemical_formula_structural   NaCl
_chemical_formula_sum   'Na4 Cl4'
_cell_volume   340.97226524
_cell_formula_units_Z   4
loop_
 _symmetry_equiv_pos_site_id
 _symmetry_equiv_pos_as_xyz
  1  'x, y, z'
loop_
 _atom_site_type_symbol
 _atom_site_label
 _atom_site_symmetry_multiplicity
 _atom_site_fract_x
 _atom_site_fract_y
 _atom_site_fract_z
 _atom_site_occupancy
  Na  Na0  1  0.42568133  0.60509261  0.41887500  1.0
  Na  Na1  1  0.27484132  0.12207999  0.42408562  1.0
  Na  Na2  1  0.15146650  0.38966438  0.86012301  1.0
  Na  Na3  1  0.90242645  0.53652242  0.63705525  1.0
  Cl  Cl4  1  0.06018477  0.22507185  0.12040145  1.0
  Cl  Cl5  1  0.83614504  0.00098806  0.08763268  1.0
  Cl  Cl6  1  0.16330315  0.25899399  0.78028800  1.0
  Cl  Cl7  1  0.75242683  0.32450319  0.42973292  1.0
