# generated using pymatgen
data_NaCl
_symmetry_space_group_name_H-M   'P 1'
_cell_length_a   5.36857335
_cell_length_b   7.19985098
_cell_length_c   6.58767173
_cell_angle_alpha   90.00000000
_cell_angle_beta   90.00000000
_cell_angle_gamma   90.00000000
_symmetry_Int_Tables_number   1
_chemical_formula_structural   NaCl
_chemical_formula_sum   'Na4 Cl4'
_cell_volume   254.63280169
_cell_formula_units_Z   4
loop_
 _symmetry_equiv_pos_site_id
 _symmetry_equiv_pos_as_xyz
  1  'x, y, z'
loop_
 _atom_site_type_symbol
 _atom_site_label
 _atom_site_symmetry_multiplicity
 _atom_site_fract_x
 _atom_site_fract_y
 _atom_site_fract_z
 _atom_site_occupancy
  Na  Na0  1  0.35282315  0.51217098  0.40578880  1.0
  Na  Na1  1  0.38061471  0.10452007  0.01217482  1.0
  Na  Na2  1  0.61891066  0.07653221  0.23579961  1.0
  Na  Na3  1  0.92363469  0.96702118  0.63003142  1.0
  Cl  Cl4  1  0.01837647  0.27795129  0.18594648  1.0
  Cl  Cl5  1  0.31377922  0.01576495  0.83737069  1.0
  Cl  Cl6  1  0.77221141  0.25358007  0.37504895  1.0
  Cl  Cl7  1  0.54207548  0.20870306  0.41408849  1.0
