# generated using pymatgen
data_NaCl
_symmetry_space_group_name_H-M   'P 1'
_cell_length_a   4.87844640
_cell_length_b   9.13610579
_cell_length_c   6.40179873
_cell_angle_alpha   90.00000000
_cell_angle_beta   90.00000000
_cell_angle_gamma   90.00000000
_symmetry_Int_Tables_number   1
_chemical_formula_structural   NaCl
_chemical_formula_sum   'Na4 Cl4'
_cell_volume   285.32818477
_cell_formula_units_Z   4
loop_
 _symmetry_equiv_pos_site_id
 _symmetry_equiv_pos_as_xyz
  1  'x, y, z'
loop_
 _atom_site_type_symbol
 _atom_site_label
 _atom_site_symmetry_multiplicity
 _atom_site_fract_x
 _atom_site_fract_y
 _atom_site_fract_z
 _atom_site_occupancy
  Na  Na0  1  0.00000000  0.71310900  0.22056586  1.0
  Na  Na1  1  0.00000000  0.20603233  0.86774162  1.0
  Na  Na2  1  0.50000000  0.36932388  0.53597315  1.0
  Na  Na3  1  0.50000000  0.61838034  0.09652937  1.0
  Cl  Cl4  1  0.00000000  0.37223855  0.24864641  1.0
  Cl  Cl5  1  0.00000000  0.03250834  0.16844516  1.0
  Cl  Cl6  1  0.50000000  0.61933241  0.84170797  1.0
  Cl  Cl7  1  0.50000000  0.26624479  0.86159442  1.0
