# generated using pymatgen
data_NaCl
_symmetry_space_group_name_H-M   'P 1'
_cell_length_a   6.14733831
_cell_length_b   5.47755166
_cell_length_c   7.10180917
_cell_angle_alpha   90.00000000
_cell_angle_beta   57.52609208
_cell_angle_gamma   90.00000000
_symmetry_Int_Tables_number   1
_chemical_formula_structural   NaCl
_chemical_formula_sum   'Na4 Cl4'
_cell_volume   201.74264938
_cell_formula_units_Z   4
loop_
 _symmetry_equiv_pos_site_id
 _symmetry_equiv_pos_as_xyz
  1  'x, y, z'
loop_
 _atom_site_type_symbol
 _atom_site_label
 _atom_site_symmetry_multiplicity
 _atom_site_fract_x
 _atom_site_fract_y
 _atom_site_fract_z
 _atom_site_occupancy
  Na  Na0  1  0.50215257  0.76222247  0.30712396  1.0
  Na  Na1  1  0.56461704  0.36331558  0.76656649  1.0
  Na  Na2  1  0.46205145  0.66457326  0.55879741  1.0
  Na  Na3  1  0.87409077  0.45910398  0.17537634  1.0
  Cl  Cl4  1  0.09376710  0.30547934  0.37396099  1.0
  Cl  Cl5  1  0.49916450  0.49987856  0.25230017  1.0
  Cl  Cl6  1  0.52986008  0.96951254  0.93620422  1.0
  Cl  Cl7  1  0.61154415  0.52722277  0.53341923  1.0
