# generated using pymatgen
data_NaCl
_symmetry_space_group_name_H-M   'P 1'
_cell_length_a   5.69537132
_cell_length_b   5.69537132
_cell_length_c   9.77361996
_cell_angle_alpha   90.00000000
_cell_angle_beta   90.00000000
_cell_angle_gamma   90.00000000
_symmetry_Int_Tables_number   1
_chemical_formula_structural   NaCl
_chemical_formula_sum   'Na4 Cl4'
_cell_volume   317.02939776
_cell_formula_units_Z   4
loop_
 _symmetry_equiv_pos_site_id
 _symmetry_equiv_pos_as_xyz
  1  'x, y, z'
loop_
 _atom_site_type_symbol
 _atom_site_label
 _atom_site_symmetry_multiplicity
 _atom_site_fract_x
 _atom_site_fract_y
 _atom_site_fract_z
 _atom_site_occupancy
  Na  Na0  1  0.38236291  0.50958314  0.34904573  1.0
  Na  Na1  1  0.38849249  0.17968005  0.64830850  1.0
  Na  Na2  1  0.50295163  0.29305682  0.25309842  1.0
  Na  Na3  1  0.89623222  0.78966132  0.24759234  1.0
  Cl  Cl4  1  0.20614798  0.20442571  0.07432641  1.0
  Cl  Cl5  1  0.24894553  0.04941205  0.25116918  1.0
  Cl  Cl6  1  0.09502864  0.35342742  0.57916240  1.0
  Cl  Cl7  1  0.09586594  0.62426390  0.37988475  1.0
