# generated using pymatgen
data_NaCl
_symmetry_space_group_name_H-M   'P 1'
_cell_length_a   5.49701012
_cell_length_b   7.11664318
_cell_length_c   5.10150586
_cell_angle_alpha   90.00000000
_cell_angle_beta   50.70863150
_cell_angle_gamma   90.00000000
_symmetry_Int_Tables_number   1
_chemical_formula_structural   NaCl
_chemical_formula_sum   'Na4 Cl4'
_cell_volume   154.45605998
_cell_formula_units_Z   4
loop_
 _symmetry_equiv_pos_site_id
 _symmetry_equiv_pos_as_xyz
  1  'x, y, z'
loop_
 _atom_site_type_symbol
 _atom_site_label
 _atom_site_symmetry_multiplicity
 _atom_site_fract_x
 _atom_site_fract_y
 _atom_site_fract_z
 _atom_site_occupancy
  Na  Na0  1  0.40404870  0.55237536  0.34068337  1.0
  Na  Na1  1  0.42876522  0.14089197  0.31734708  1.0
  Na  Na2  1  0.08723512  0.29250962  0.70335845  1.0
  Na  Na3  1  0.51796122  0.52694274  0.97768989  1.0
  Cl  Cl4  1  0.23785021  0.00000000  0.22067015  1.0
  Cl  Cl5  1  0.15974856  0.50000000  0.10270319  1.0
  Cl  Cl6  1  0.09643358  0.00000000  0.86816833  1.0
  Cl  Cl7  1  0.89574408  0.50000000  0.56800123  1.0
