# generated using pymatgen
data_NaCl
_symmetry_space_group_name_H-M   'P 1'
_cell_length_a   6.82665535
_cell_length_b   6.82665535
_cell_length_c   6.93247391
_cell_angle_alpha   90.00000000
_cell_angle_beta   90.00000000
_cell_angle_gamma   90.00000000
_symmetry_Int_Tables_number   1
_chemical_formula_structural   NaCl
_chemical_formula_sum   'Na4 Cl4'
_cell_volume   323.07562943
_cell_formula_units_Z   4
loop_
 _symmetry_equiv_pos_site_id
 _symmetry_equiv_pos_as_xyz
  1  'x, y, z'
loop_
 _atom_site_type_symbol
 _atom_site_label
 _atom_site_symmetry_multiplicity
 _atom_site_fract_x
 _atom_site_fract_y
 _atom_site_fract_z
 _atom_site_occupancy
  Na  Na0  1  0.35689703  0.52401015  0.38652690  1.0
  Na  Na1  1  0.48611207  0.10467647  0.98847629  1.0
  Na  Na2  1  0.03440326  0.57100213  0.55524927  1.0
  Na  Na3  1  0.92537170  0.94561842  0.86212763  1.0
  Cl  Cl4  1  0.04156600  0.24328244  0.23196329  1.0
  Cl  Cl5  1  0.35396803  0.08298379  0.53776445  1.0
  Cl  Cl6  1  0.20332885  0.76857660  0.68284375  1.0
  Cl  Cl7  1  0.20174041  0.53918397  0.75969648  1.0
