# generated using pymatgen
data_NaCl
_symmetry_space_group_name_H-M   'P 1'
_cell_length_a   6.22307731
_cell_length_b   6.22307731
_cell_length_c   6.33009453
_cell_angle_alpha   90.00000000
_cell_angle_beta   90.00000000
_cell_angle_gamma   90.00000000
_symmetry_Int_Tables_number   1
_chemical_formula_structural   NaCl
_chemical_formula_sum   'Na4 Cl4'
_cell_volume   245.14361617
_cell_formula_units_Z   4
loop_
 _symmetry_equiv_pos_site_id
 _symmetry_equiv_pos_as_xyz
  1  'x, y, z'
loop_
 _atom_site_type_symbol
 _atom_site_label
 _atom_site_symmetry_multiplicity
 _atom_site_fract_x
 _atom_site_fract_y
 _atom_site_fract_z
 _atom_site_occupancy
  Na  Na0  1  0.47087810  0.47087810  0.00000000  1.0
  Na  Na1  1  0.64448404  0.64448404  0.50000000  1.0
  Na  Na2  1  0.91066346  0.08933654  0.75000000  1.0
  Na  Na3  1  0.72166499  0.27833501  0.25000000  1.0
  Cl  Cl4  1  0.08685648  0.08685648  0.00000000  1.0
  Cl  Cl5  1  0.36406588  0.36406588  0.50000000  1.0
  Cl  Cl6  1  0.06650699  0.93349301  0.75000000  1.0
  Cl  Cl7  1  0.01731281  0.98268719  0.25000000  1.0
