# generated using pymatgen
data_NaCl
_symmetry_space_group_name_H-M   'P 1'
_cell_length_a   5.59900936
_cell_length_b   2.98462502
_cell_length_c   11.70832678
_cell_angle_alpha   90.00000000
_cell_angle_beta   90.00000000
_cell_angle_gamma   90.00000000
_symmetry_Int_Tables_number   1
_chemical_formula_structural   NaCl
_chemical_formula_sum   'Na4 Cl4'
_cell_volume   195.65718640
_cell_formula_units_Z   4
loop_
 _symmetry_equiv_pos_site_id
 _symmetry_equiv_pos_as_xyz
  1  'x, y, z'
loop_
 _atom_site_type_symbol
 _atom_site_label
 _atom_site_symmetry_multiplicity
 _atom_site_fract_x
 _atom_site_fract_y
 _atom_site_fract_z
 _atom_site_occupancy
  Na  Na0  1  0.55791237  0.69351185  0.18514023  1.0
  Na  Na1  1  0.51978095  0.19951683  0.84987610  1.0
  Na  Na2  1  0.07109245  0.24549366  0.53213277  1.0
  Na  Na3  1  0.91971078  0.97092963  0.35364090  1.0
  Cl  Cl4  1  0.30438214  0.08277732  0.27140712  1.0
  Cl  Cl5  1  0.47912202  0.02091366  0.33421793  1.0
  Cl  Cl6  1  0.04277239  0.94751699  0.86686614  1.0
  Cl  Cl7  1  0.07926453  0.20575163  0.05324831  1.0
