# generated using pymatgen
data_NaCl
_symmetry_space_group_name_H-M   'P 1'
_cell_length_a   5.66544835
_cell_length_b   5.66544835
_cell_length_c   6.21423935
_cell_angle_alpha   90.00000000
_cell_angle_beta   90.00000000
_cell_angle_gamma   90.00000000
_symmetry_Int_Tables_number   1
_chemical_formula_structural   NaCl
_chemical_formula_sum   'Na4 Cl4'
_cell_volume   199.46033580
_cell_formula_units_Z   4
loop_
 _symmetry_equiv_pos_site_id
 _symmetry_equiv_pos_as_xyz
  1  'x, y, z'
loop_
 _atom_site_type_symbol
 _atom_site_label
 _atom_site_symmetry_multiplicity
 _atom_site_fract_x
 _atom_site_fract_y
 _atom_site_fract_z
 _atom_site_occupancy
  Na  Na0  1  0.38849116  0.67900824  0.17732739  1.0
  Na  Na1  1  0.66386186  0.26700134  0.73637392  1.0
  Na  Na2  1  0.35254450  0.56520428  0.75319273  1.0
  Na  Na3  1  0.98595359  0.77444143  0.45352783  1.0
  Cl  Cl4  1  0.11601249  0.23121904  0.05631007  1.0
  Cl  Cl5  1  0.34931748  0.00100693  0.31672501  1.0
  Cl  Cl6  1  0.90807624  0.36166440  0.20598571  1.0
  Cl  Cl7  1  0.10860285  0.61791123  0.10865486  1.0
