# generated using pymatgen
data_NaCl
_symmetry_space_group_name_H-M   'P 1'
_cell_length_a   6.53071912
_cell_length_b   7.25579201
_cell_length_c   5.29129544
_cell_angle_alpha   90.00000000
_cell_angle_beta   69.56263292
_cell_angle_gamma   90.00000000
_symmetry_Int_Tables_number   1
_chemical_formula_structural   NaCl
_chemical_formula_sum   'Na4 Cl4'
_cell_volume   234.94849816
_cell_formula_units_Z   4
loop_
 _symmetry_equiv_pos_site_id
 _symmetry_equiv_pos_as_xyz
  1  'x, y, z'
loop_
 _atom_site_type_symbol
 _atom_site_label
 _atom_site_symmetry_multiplicity
 _atom_site_fract_x
 _atom_site_fract_y
 _atom_site_fract_z
 _atom_site_occupancy
  Na  Na0  1  0.39455150  0.53064966  0.38019566  1.0
  Na  Na1  1  0.38939332  0.84588260  0.93979619  1.0
  Na  Na2  1  0.36026934  0.12173397  0.11031175  1.0
  Na  Na3  1  0.05770397  0.04822692  0.04633871  1.0
  Cl  Cl4  1  0.00000000  0.18916794  0.25000000  1.0
  Cl  Cl5  1  0.00000000  0.06518525  0.75000000  1.0
  Cl  Cl6  1  0.50000000  0.50000000  0.00000000  1.0
  Cl  Cl7  1  0.50000000  0.50000000  0.50000000  1.0
