# generated using pymatgen
data_NaCl
_symmetry_space_group_name_H-M   'P 1'
_cell_length_a   5.80291065
_cell_length_b   3.33213109
_cell_length_c   12.15883652
_cell_angle_alpha   90.00000000
_cell_angle_beta   90.00000000
_cell_angle_gamma   90.00000000
_symmetry_Int_Tables_number   1
_chemical_formula_structural   NaCl
_chemical_formula_sum   'Na4 Cl4'
_cell_volume   235.10398019
_cell_formula_units_Z   4
loop_
 _symmetry_equiv_pos_site_id
 _symmetry_equiv_pos_as_xyz
  1  'x, y, z'
loop_
 _atom_site_type_symbol
 _atom_site_label
 _atom_site_symmetry_multiplicity
 _atom_site_fract_x
 _atom_site_fract_y
 _atom_site_fract_z
 _atom_site_occupancy
  Na  Na0  1  0.00000000  0.50000000  0.34661537  1.0
  Na  Na1  1  0.50000000  0.50000000  0.34609358  1.0
  Na  Na2  1  0.25000000  0.77358734  0.63674526  1.0
  Na  Na3  1  0.75000000  0.07307582  0.81616145  1.0
  Cl  Cl4  1  0.00000000  0.00000000  0.11294516  1.0
  Cl  Cl5  1  0.50000000  0.00000000  0.71220013  1.0
  Cl  Cl6  1  0.25000000  0.50164475  0.93328460  1.0
  Cl  Cl7  1  0.75000000  0.91135051  0.64307547  1.0
