# generated using pymatgen
data_NaCl
_symmetry_space_group_name_H-M   'P 1'
_cell_length_a   8.48275558
_cell_length_b   4.05273897
_cell_length_c   6.20325202
_cell_angle_alpha   90.00000000
_cell_angle_beta   83.31388727
_cell_angle_gamma   90.00000000
_symmetry_Int_Tables_number   1
_chemical_formula_structural   NaCl
_chemical_formula_sum   'Na4 Cl4'
_cell_volume   211.80745456
_cell_formula_units_Z   4
loop_
 _symmetry_equiv_pos_site_id
 _symmetry_equiv_pos_as_xyz
  1  'x, y, z'
loop_
 _atom_site_type_symbol
 _atom_site_label
 _atom_site_symmetry_multiplicity
 _atom_site_fract_x
 _atom_site_fract_y
 _atom_site_fract_z
 _atom_site_occupancy
  Na  Na0  1  0.56712199  0.60977484  0.27704482  1.0
  Na  Na1  1  0.68424679  0.17739941  0.12644044  1.0
  Na  Na2  1  0.76991772  0.21341036  0.41496094  1.0
  Na  Na3  1  0.27948669  0.55178673  0.88003284  1.0
  Cl  Cl4  1  0.19706966  0.00000000  0.25424382  1.0
  Cl  Cl5  1  0.17325820  0.50000000  0.73952095  1.0
  Cl  Cl6  1  0.66450057  0.00000000  0.25850184  1.0
  Cl  Cl7  1  0.86154796  0.50000000  0.26493878  1.0
