# generated using pymatgen
data_NaCl
_symmetry_space_group_name_H-M   'P 1'
_cell_length_a   6.18672210
_cell_length_b   7.74796289
_cell_length_c   2.72657321
_cell_angle_alpha   90.00000000
_cell_angle_beta   68.81141965
_cell_angle_gamma   90.00000000
_symmetry_Int_Tables_number   1
_chemical_formula_structural   NaCl
_chemical_formula_sum   'Na4 Cl4'
_cell_volume   121.86125301
_cell_formula_units_Z   4
loop_
 _symmetry_equiv_pos_site_id
 _symmetry_equiv_pos_as_xyz
  1  'x, y, z'
loop_
 _atom_site_type_symbol
 _atom_site_label
 _atom_site_symmetry_multiplicity
 _atom_site_fract_x
 _atom_site_fract_y
 _atom_site_fract_z
 _atom_site_occupancy
  Na  Na0  1  0.50000000  0.00000000  0.00000000  1.0
  Na  Na1  1  0.50000000  0.50000000  0.50000000  1.0
  Na  Na2  1  0.50000000  0.00000000  0.50000000  1.0
  Na  Na3  1  0.50000000  0.50000000  0.00000000  1.0
  Cl  Cl4  1  0.00077340  0.31900055  0.33138234  1.0
  Cl  Cl5  1  0.55350507  0.31895866  0.89924628  1.0
  Cl  Cl6  1  0.72391703  0.49116746  0.22098013  1.0
  Cl  Cl7  1  0.43734171  0.36742602  0.83865540  1.0
