# generated using pymatgen
data_NaCl
_symmetry_space_group_name_H-M   'P 1'
_cell_length_a   5.19620282
_cell_length_b   6.74562421
_cell_length_c   5.03313554
_cell_angle_alpha   90.00000000
_cell_angle_beta   90.00000000
_cell_angle_gamma   90.00000000
_symmetry_Int_Tables_number   1
_chemical_formula_structural   NaCl
_chemical_formula_sum   'Na4 Cl4'
_cell_volume   176.41961245
_cell_formula_units_Z   4
loop_
 _symmetry_equiv_pos_site_id
 _symmetry_equiv_pos_as_xyz
  1  'x, y, z'
loop_
 _atom_site_type_symbol
 _atom_site_label
 _atom_site_symmetry_multiplicity
 _atom_site_fract_x
 _atom_site_fract_y
 _atom_site_fract_z
 _atom_site_occupancy
  Na  Na0  1  0.25000000  0.64567189  0.46230136  1.0
  Na  Na1  1  0.75000000  0.12379079  0.21973233  1.0
  Na  Na2  1  0.25000000  0.23075343  0.07527966  1.0
  Na  Na3  1  0.75000000  0.67988427  0.29120677  1.0
  Cl  Cl4  1  0.00000000  0.00000000  0.11382862  1.0
  Cl  Cl5  1  0.50000000  0.00000000  0.70541177  1.0
  Cl  Cl6  1  0.00000000  0.50000000  0.35656955  1.0
  Cl  Cl7  1  0.50000000  0.50000000  0.08271499  1.0
