# generated using pymatgen
data_NaCl
_symmetry_space_group_name_H-M   'P 1'
_cell_length_a   6.32857553
_cell_length_b   5.36078771
_cell_length_c   4.74276940
_cell_angle_alpha   90.00000000
_cell_angle_beta   47.22641973
_cell_angle_gamma   90.00000000
_symmetry_Int_Tables_number   1
_chemical_formula_structural   NaCl
_chemical_formula_sum   'Na4 Cl4'
_cell_volume   118.11039926
_cell_formula_units_Z   4
loop_
 _symmetry_equiv_pos_site_id
 _symmetry_equiv_pos_as_xyz
  1  'x, y, z'
loop_
 _atom_site_type_symbol
 _atom_site_label
 _atom_site_symmetry_multiplicity
 _atom_site_fract_x
 _atom_site_fract_y
 _atom_site_fract_z
 _atom_site_occupancy
  Na  Na0  1  0.48128515  0.73269617  0.21798252  1.0
  Na  Na1  1  0.35934366  0.17294090  0.87256684  1.0
  Na  Na2  1  0.09203247  0.23158944  0.58564655  1.0
  Na  Na3  1  0.67559554  0.73773914  0.35729700  1.0
  Cl  Cl4  1  0.11249616  0.07271176  0.22901708  1.0
  Cl  Cl5  1  0.40559851  0.15246864  0.26220914  1.0
  Cl  Cl6  1  0.99130317  0.73916460  0.99893067  1.0
  Cl  Cl7  1  0.04001864  0.33799673  0.07301713  1.0
