# generated using pymatgen
data_NaCl
_symmetry_space_group_name_H-M   'P 1'
_cell_length_a   6.68595323
_cell_length_b   6.68595323
_cell_length_c   4.26438228
_cell_angle_alpha   90.00000000
_cell_angle_beta   90.00000000
_cell_angle_gamma   90.00000000
_symmetry_Int_Tables_number   1
_chemical_formula_structural   NaCl
_chemical_formula_sum   'Na4 Cl4'
_cell_volume   190.62629128
_cell_formula_units_Z   4
loop_
 _symmetry_equiv_pos_site_id
 _symmetry_equiv_pos_as_xyz
  1  'x, y, z'
loop_
 _atom_site_type_symbol
 _atom_site_label
 _atom_site_symmetry_multiplicity
 _atom_site_fract_x
 _atom_site_fract_y
 _atom_site_fract_z
 _atom_site_occupancy
  Na  Na0  1  0.57435375  0.46837886  0.34401980  1.0
  Na  Na1  1  0.65752718  0.08275728  0.83230598  1.0
  Na  Na2  1  0.23684808  0.52373282  0.28084281  1.0
  Na  Na3  1  0.94281894  0.85461024  0.08556585  1.0
  Cl  Cl4  1  0.42152226  0.13320574  0.19596612  1.0
  Cl  Cl5  1  0.27793292  0.08709763  0.25168327  1.0
  Cl  Cl6  1  0.96176000  0.01897441  0.73165247  1.0
  Cl  Cl7  1  0.08849398  0.61640829  0.45171322  1.0
