# generated using pymatgen
data_NaCl
_symmetry_space_group_name_H-M   'P 1'
_cell_length_a   8.87968873
_cell_length_b   4.86084050
_cell_length_c   9.29500025
_cell_angle_alpha   90.00000000
_cell_angle_beta   93.13223977
_cell_angle_gamma   90.00000000
_symmetry_Int_Tables_number   1
_chemical_formula_structural   NaCl
_chemical_formula_sum   'Na4 Cl4'
_cell_volume   400.59842135
_cell_formula_units_Z   4
loop_
 _symmetry_equiv_pos_site_id
 _symmetry_equiv_pos_as_xyz
  1  'x, y, z'
loop_
 _atom_site_type_symbol
 _atom_site_label
 _atom_site_symmetry_multiplicity
 _atom_site_fract_x
 _atom_site_fract_y
 _atom_site_fract_z
 _atom_site_occupancy
  Na  Na0  1  0.63855475  0.65993184  0.22983205  1.0
  Na  Na1  1  0.44847631  0.45852993  0.89893849  1.0
  Na  Na2  1  0.68202780  0.51201804  0.52893998  1.0
  Na  Na3  1  0.86562508  0.38915349  0.08936802  1.0
  Cl  Cl4  1  0.20973108  0.34730248  0.17785609  1.0
  Cl  Cl5  1  0.13532863  0.34106692  0.79917990  1.0
  Cl  Cl6  1  0.50751316  0.91024734  0.92449013  1.0
  Cl  Cl7  1  0.65075105  0.55036741  0.65353528  1.0
