# generated using pymatgen
data_NaCl
_symmetry_space_group_name_H-M   'P 1'
_cell_length_a   5.73628570
_cell_length_b   6.94578716
_cell_length_c   5.83415769
_cell_angle_alpha   90.00000000
_cell_angle_beta   68.11586054
_cell_angle_gamma   90.00000000
_symmetry_Int_Tables_number   1
_chemical_formula_structural   NaCl
_chemical_formula_sum   'Na4 Cl4'
_cell_volume   215.69995530
_cell_formula_units_Z   4
loop_
 _symmetry_equiv_pos_site_id
 _symmetry_equiv_pos_as_xyz
  1  'x, y, z'
loop_
 _atom_site_type_symbol
 _atom_site_label
 _atom_site_symmetry_multiplicity
 _atom_site_fract_x
 _atom_site_fract_y
 _atom_site_fract_z
 _atom_site_occupancy
  Na  Na0  1  0.42435290  0.53121100  0.44380886  1.0
  Na  Na1  1  0.31115111  0.12175520  0.03874581  1.0
  Na  Na2  1  0.10567397  0.46227100  0.72849364  1.0
  Na  Na3  1  0.61214904  0.51501718  0.18099611  1.0
  Cl  Cl4  1  0.00631710  0.24213367  0.21233609  1.0
  Cl  Cl5  1  0.67195251  0.03589097  0.80611424  1.0
  Cl  Cl6  1  0.15129273  0.25202985  0.82918701  1.0
  Cl  Cl7  1  0.94378858  0.41616419  0.97475681  1.0
