# generated using pymatgen
data_NaCl
_symmetry_space_group_name_H-M   'P 1'
_cell_length_a   7.24650371
_cell_length_b   4.39593544
_cell_length_c   12.83284328
_cell_angle_alpha   90.00000000
_cell_angle_beta   90.00000000
_cell_angle_gamma   90.00000000
_symmetry_Int_Tables_number   1
_chemical_formula_structural   NaCl
_chemical_formula_sum   'Na4 Cl4'
_cell_volume   408.79230770
_cell_formula_units_Z   4
loop_
 _symmetry_equiv_pos_site_id
 _symmetry_equiv_pos_as_xyz
  1  'x, y, z'
loop_
 _atom_site_type_symbol
 _atom_site_label
 _atom_site_symmetry_multiplicity
 _atom_site_fract_x
 _atom_site_fract_y
 _atom_site_fract_z
 _atom_site_occupancy
  Na  Na0  1  0.53866259  0.63908973  0.34608976  1.0
  Na  Na1  1  0.72320189  0.05734805  0.54080910  1.0
  Na  Na2  1  0.54770880  0.12973046  0.90420883  1.0
  Na  Na3  1  0.55597116  0.55270311  0.21560286  1.0
  Cl  Cl4  1  0.05824030  0.03414529  0.15015780  1.0
  Cl  Cl5  1  0.39992504  0.07744084  0.33298440  1.0
  Cl  Cl6  1  0.64485540  0.36227412  0.76650614  1.0
  Cl  Cl7  1  0.80649801  0.48186717  0.71573848  1.0
