# generated using pymatgen
data_NaCl
_symmetry_space_group_name_H-M   'P 1'
_cell_length_a   4.32662132
_cell_length_b   8.81265643
_cell_length_c   5.14763250
_cell_angle_alpha   90.00000000
_cell_angle_beta   47.66995907
_cell_angle_gamma   90.00000000
_symmetry_Int_Tables_number   1
_chemical_formula_structural   NaCl
_chemical_formula_sum   'Na4 Cl4'
_cell_volume   145.10123685
_cell_formula_units_Z   4
loop_
 _symmetry_equiv_pos_site_id
 _symmetry_equiv_pos_as_xyz
  1  'x, y, z'
loop_
 _atom_site_type_symbol
 _atom_site_label
 _atom_site_symmetry_multiplicity
 _atom_site_fract_x
 _atom_site_fract_y
 _atom_site_fract_z
 _atom_site_occupancy
  Na  Na0  1  0.45823294  0.72982537  0.17936400  1.0
  Na  Na1  1  0.46921558  0.17909891  0.78108975  1.0
  Na  Na2  1  0.45800438  0.77465909  0.62147888  1.0
  Na  Na3  1  0.77653333  0.55241019  0.34347635  1.0
  Cl  Cl4  1  0.19059010  0.28094928  0.28034677  1.0
  Cl  Cl5  1  0.62038972  0.05896839  0.32691087  1.0
  Cl  Cl6  1  0.47551779  0.31895153  0.98313262  1.0
  Cl  Cl7  1  0.46977655  0.84043569  0.04525878  1.0
