# generated using pymatgen
data_NaCl
_symmetry_space_group_name_H-M   'P 1'
_cell_length_a   8.79032988
_cell_length_b   8.79032988
_cell_length_c   4.41278363
_cell_angle_alpha   90.00000000
_cell_angle_beta   90.00000000
_cell_angle_gamma   90.00000000
_symmetry_Int_Tables_number   1
_chemical_formula_structural   NaCl
_chemical_formula_sum   'Na4 Cl4'
_cell_volume   340.97534716
_cell_formula_units_Z   4
loop_
 _symmetry_equiv_pos_site_id
 _symmetry_equiv_pos_as_xyz
  1  'x, y, z'
loop_
 _atom_site_type_symbol
 _atom_site_label
 _atom_site_symmetry_multiplicity
 _atom_site_fract_x
 _atom_site_fract_y
 _atom_site_fract_z
 _atom_site_occupancy
  Na  Na0  1  0.72095713  0.77909449  0.20615382  1.0
  Na  Na1  1  0.80904998  0.46818689  0.90493793  1.0
  Na  Na2  1  0.30247281  0.64347661  0.45197210  1.0
  Na  Na3  1  0.34256394  0.50195911  0.36649768  1.0
  Cl  Cl4  1  0.74699025  0.34204110  0.16815208  1.0
  Cl  Cl5  1  0.28711099  0.07257675  0.09726876  1.0
  Cl  Cl6  1  0.09101050  0.24958917  0.21981004  1.0
  Cl  Cl7  1  0.00041034  0.64661733  0.21644080  1.0
