# generated using pymatgen
data_NaCl
_symmetry_space_group_name_H-M   'P 1'
_cell_length_a   6.32579661
_cell_length_b   6.32579661
_cell_length_c   4.79383827
_cell_angle_alpha   90.00000000
_cell_angle_beta   90.00000000
_cell_angle_gamma   90.00000000
_symmetry_Int_Tables_number   1
_chemical_formula_structural   NaCl
_chemical_formula_sum   'Na4 Cl4'
_cell_volume   191.82880725
_cell_formula_units_Z   4
loop_
 _symmetry_equiv_pos_site_id
 _symmetry_equiv_pos_as_xyz
  1  'x, y, z'
loop_
 _atom_site_type_symbol
 _atom_site_label
 _atom_site_symmetry_multiplicity
 _atom_site_fract_x
 _atom_site_fract_y
 _atom_site_fract_z
 _atom_site_occupancy
  Na  Na0  1  0.54086498  0.71029260  0.35382933  1.0
  Na  Na1  1  0.00083112  0.22705664  0.84222805  1.0
  Na  Na2  1  0.31900004  0.63295733  0.82298375  1.0
  Na  Na3  1  0.91463971  0.92788497  0.56404768  1.0
  Cl  Cl4  1  0.18781912  0.04183279  0.21648522  1.0
  Cl  Cl5  1  0.32509008  0.08162635  0.33387426  1.0
  Cl  Cl6  1  0.83577041  0.93324447  0.19221262  1.0
  Cl  Cl7  1  0.03942055  0.55957328  0.05197456  1.0
