# generated using pymatgen
data_NaCl
_symmetry_space_group_name_H-M   'P 1'
_cell_length_a   4.33745385
_cell_length_b   4.33745385
_cell_length_c   6.97306511
_cell_angle_alpha   90.00000000
_cell_angle_beta   90.00000000
_cell_angle_gamma   90.00000000
_symmetry_Int_Tables_number   1
_chemical_formula_structural   NaCl
_chemical_formula_sum   'Na4 Cl4'
_cell_volume   131.18780159
_cell_formula_units_Z   4
loop_
 _symmetry_equiv_pos_site_id
 _symmetry_equiv_pos_as_xyz
  1  'x, y, z'
loop_
 _atom_site_type_symbol
 _atom_site_label
 _atom_site_symmetry_multiplicity
 _atom_site_fract_x
 _atom_site_fract_y
 _atom_site_fract_z
 _atom_site_occupancy
  Na  Na0  1  0.00000000  0.50000000  0.15137909  1.0
  Na  Na1  1  0.50000000  0.00000000  0.28959011  1.0
  Na  Na2  1  0.50000000  0.00000000  0.99726322  1.0
  Na  Na3  1  0.00000000  0.50000000  0.35963511  1.0
  Cl  Cl4  1  0.00000000  0.00000000  0.36655938  1.0
  Cl  Cl5  1  0.50000000  0.50000000  0.25157936  1.0
  Cl  Cl6  1  0.00000000  0.00000000  0.85588766  1.0
  Cl  Cl7  1  0.50000000  0.50000000  0.13162533  1.0
