# generated using pymatgen
data_NaCl
_symmetry_space_group_name_H-M   'P 1'
_cell_length_a   5.99556060
_cell_length_b   5.99556060
_cell_length_c   10.49949622
_cell_angle_alpha   90.00000000
_cell_angle_beta   90.00000000
_cell_angle_gamma   90.00000000
_symmetry_Int_Tables_number   1
_chemical_formula_structural   NaCl
_chemical_formula_sum   'Na4 Cl4'
_cell_volume   377.42273328
_cell_formula_units_Z   4
loop_
 _symmetry_equiv_pos_site_id
 _symmetry_equiv_pos_as_xyz
  1  'x, y, z'
loop_
 _atom_site_type_symbol
 _atom_site_label
 _atom_site_symmetry_multiplicity
 _atom_site_fract_x
 _atom_site_fract_y
 _atom_site_fract_z
 _atom_site_occupancy
  Na  Na0  1  0.44024496  0.66844130  0.29664589  1.0
  Na  Na1  1  0.57924417  0.01089657  0.78449005  1.0
  Na  Na2  1  0.21001963  0.53445357  0.30246245  1.0
  Na  Na3  1  0.81427945  0.92700258  0.07780532  1.0
  Cl  Cl4  1  0.23800070  0.07182377  0.27337670  1.0
  Cl  Cl5  1  0.42841340  0.07777456  0.24827706  1.0
  Cl  Cl6  1  0.64949743  0.61724388  0.69383950  1.0
  Cl  Cl7  1  0.09102742  0.55700321  0.83299086  1.0
