# generated using pymatgen
data_NaCl
_symmetry_space_group_name_H-M   'P 1'
_cell_length_a   4.67955934
_cell_length_b   7.89069442
_cell_length_c   10.30305275
_cell_angle_alpha   90.00000000
_cell_angle_beta   90.00000000
_cell_angle_gamma   90.00000000
_symmetry_Int_Tables_number   1
_chemical_formula_structural   NaCl
_chemical_formula_sum   'Na4 Cl4'
_cell_volume   380.43994226
_cell_formula_units_Z   4
loop_
 _symmetry_equiv_pos_site_id
 _symmetry_equiv_pos_as_xyz
  1  'x, y, z'
loop_
 _atom_site_type_symbol
 _atom_site_label
 _atom_site_symmetry_multiplicity
 _atom_site_fract_x
 _atom_site_fract_y
 _atom_site_fract_z
 _atom_site_occupancy
  Na  Na0  1  0.53137733  0.61238315  0.29495512  1.0
  Na  Na1  1  0.04536487  0.63597825  0.56883755  1.0
  Na  Na2  1  0.02515479  0.20271765  0.01218534  1.0
  Na  Na3  1  0.26770556  0.84198974  0.82747739  1.0
  Cl  Cl4  1  0.00000000  0.13949235  0.15938095  1.0
  Cl  Cl5  1  0.50000000  0.01942058  0.26889408  1.0
  Cl  Cl6  1  0.00000000  0.93244056  0.96741371  1.0
  Cl  Cl7  1  0.50000000  0.99991169  0.93484832  1.0
