# generated using pymatgen
data_NaCl
_symmetry_space_group_name_H-M   'P 1'
_cell_length_a   5.60669903
_cell_length_b   3.22237127
_cell_length_c   9.17480893
_cell_angle_alpha   90.00000000
_cell_angle_beta   83.80310115
_cell_angle_gamma   90.00000000
_symmetry_Int_Tables_number   1
_chemical_formula_structural   NaCl
_chemical_formula_sum   'Na4 Cl4'
_cell_volume   164.79147460
_cell_formula_units_Z   4
loop_
 _symmetry_equiv_pos_site_id
 _symmetry_equiv_pos_as_xyz
  1  'x, y, z'
loop_
 _atom_site_type_symbol
 _atom_site_label
 _atom_site_symmetry_multiplicity
 _atom_site_fract_x
 _atom_site_fract_y
 _atom_site_fract_z
 _atom_site_occupancy
  Na  Na0  1  0.50000000  0.00000000  0.50000000  1.0
  Na  Na1  1  0.50000000  0.50000000  0.50000000  1.0
  Na  Na2  1  0.29629891  0.25000000  0.39259057  1.0
  Na  Na3  1  0.80531163  0.75000000  0.19658781  1.0
  Cl  Cl4  1  0.26035549  0.14676387  0.15622681  1.0
  Cl  Cl5  1  0.29145237  0.49951182  0.16496580  1.0
  Cl  Cl6  1  0.54085150  0.12905066  0.05058573  1.0
  Cl  Cl7  1  0.37901111  0.46848482  0.29313902  1.0
