# generated using pymatgen
data_NaCl
_symmetry_space_group_name_H-M   'P 1'
_cell_length_a   5.12442287
_cell_length_b   6.72695339
_cell_length_c   14.20657497
_cell_angle_alpha   90.00000000
_cell_angle_beta   40.89451098
_cell_angle_gamma   90.00000000
_symmetry_Int_Tables_number   1
_chemical_formula_structural   NaCl
_chemical_formula_sum   'Na4 Cl4'
_cell_volume   320.60784474
_cell_formula_units_Z   4
loop_
 _symmetry_equiv_pos_site_id
 _symmetry_equiv_pos_as_xyz
  1  'x, y, z'
loop_
 _atom_site_type_symbol
 _atom_site_label
 _atom_site_symmetry_multiplicity
 _atom_site_fract_x
 _atom_site_fract_y
 _atom_site_fract_z
 _atom_site_occupancy
  Na  Na0  1  0.50884299  0.71630415  0.19216591  1.0
  Na  Na1  1  0.40813561  0.19840397  0.78389478  1.0
  Na  Na2  1  0.11194572  0.32000119  0.54017308  1.0
  Na  Na3  1  0.19101106  0.68219552  0.43398252  1.0
  Cl  Cl4  1  0.20824336  0.01497095  0.34237912  1.0
  Cl  Cl5  1  0.56738834  0.06145112  0.20762054  1.0
  Cl  Cl6  1  0.20737376  0.79886504  0.91067993  1.0
  Cl  Cl7  1  0.09589079  0.27092184  0.03037978  1.0
