# generated using pymatgen
data_NaCl
_symmetry_space_group_name_H-M   'P 1'
_cell_length_a   8.18999318
_cell_length_b   2.00963016
_cell_length_c   11.56795814
_cell_angle_alpha   90.00000000
_cell_angle_beta   90.00000000
_cell_angle_gamma   90.00000000
_symmetry_Int_Tables_number   1
_chemical_formula_structural   NaCl
_chemical_formula_sum   'Na4 Cl4'
_cell_volume   190.39537233
_cell_formula_units_Z   4
loop_
 _symmetry_equiv_pos_site_id
 _symmetry_equiv_pos_as_xyz
  1  'x, y, z'
loop_
 _atom_site_type_symbol
 _atom_site_label
 _atom_site_symmetry_multiplicity
 _atom_site_fract_x
 _atom_site_fract_y
 _atom_site_fract_z
 _atom_site_occupancy
  Na  Na0  1  0.70829381  0.88153653  0.30270947  1.0
  Na  Na1  1  0.44603055  0.72884276  0.10148391  1.0
  Na  Na2  1  0.62510761  0.65614968  0.94222544  1.0
  Na  Na3  1  0.92245260  0.32843633  0.19513877  1.0
  Cl  Cl4  1  0.00000000  0.00000000  0.46240875  1.0
  Cl  Cl5  1  0.00000000  0.50000000  0.97016740  1.0
  Cl  Cl6  1  0.00000000  0.00000000  0.99820229  1.0
  Cl  Cl7  1  0.00000000  0.50000000  0.07846921  1.0
