# generated using pymatgen
data_NaCl
_symmetry_space_group_name_H-M   'P 1'
_cell_length_a   7.54263987
_cell_length_b   12.21032352
_cell_length_c   3.28444527
_cell_angle_alpha   90.00000000
_cell_angle_beta   90.00000000
_cell_angle_gamma   90.00000000
_symmetry_Int_Tables_number   1
_chemical_formula_structural   NaCl
_chemical_formula_sum   'Na4 Cl4'
_cell_volume   302.49108027
_cell_formula_units_Z   4
loop_
 _symmetry_equiv_pos_site_id
 _symmetry_equiv_pos_as_xyz
  1  'x, y, z'
loop_
 _atom_site_type_symbol
 _atom_site_label
 _atom_site_symmetry_multiplicity
 _atom_site_fract_x
 _atom_site_fract_y
 _atom_site_fract_z
 _atom_site_occupancy
  Na  Na0  1  0.07268191  0.25000000  0.65065684  1.0
  Na  Na1  1  0.66584593  0.75000000  0.29035040  1.0
  Na  Na2  1  0.46536653  0.75000000  0.15857746  1.0
  Na  Na3  1  0.71235856  0.25000000  0.70372357  1.0
  Cl  Cl4  1  0.50000000  0.00000000  0.44595965  1.0
  Cl  Cl5  1  0.50000000  0.50000000  0.66139822  1.0
  Cl  Cl6  1  0.50000000  0.50000000  0.36172852  1.0
  Cl  Cl7  1  0.50000000  0.00000000  0.19081512  1.0
