# generated using pymatgen
data_NaCl
_symmetry_space_group_name_H-M   'P 1'
_cell_length_a   7.36933408
_cell_length_b   9.17723735
_cell_length_c   5.70486643
_cell_angle_alpha   90.00000000
_cell_angle_beta   90.00000000
_cell_angle_gamma   90.00000000
_symmetry_Int_Tables_number   1
_chemical_formula_structural   NaCl
_chemical_formula_sum   'Na4 Cl4'
_cell_volume   385.82084668
_cell_formula_units_Z   4
loop_
 _symmetry_equiv_pos_site_id
 _symmetry_equiv_pos_as_xyz
  1  'x, y, z'
loop_
 _atom_site_type_symbol
 _atom_site_label
 _atom_site_symmetry_multiplicity
 _atom_site_fract_x
 _atom_site_fract_y
 _atom_site_fract_z
 _atom_site_occupancy
  Na  Na0  1  0.39443889  0.63336258  0.23026946  1.0
  Na  Na1  1  0.52614476  0.19971806  0.86148571  1.0
  Na  Na2  1  0.55215458  0.71892750  0.94854367  1.0
  Na  Na3  1  0.04566698  0.05946448  0.11565920  1.0
  Cl  Cl4  1  0.29587575  0.00000000  0.00000000  1.0
  Cl  Cl5  1  0.37813723  0.00000000  0.50000000  1.0
  Cl  Cl6  1  0.50060898  0.00000000  0.00000000  1.0
  Cl  Cl7  1  0.66014203  0.00000000  0.50000000  1.0
