# generated using pymatgen
data_NaCl
_symmetry_space_group_name_H-M   'P 1'
_cell_length_a   7.20801237
_cell_length_b   8.08852704
_cell_length_c   2.54209417
_cell_angle_alpha   90.00000000
_cell_angle_beta   73.49271072
_cell_angle_gamma   90.00000000
_symmetry_Int_Tables_number   1
_chemical_formula_structural   NaCl
_chemical_formula_sum   'Na4 Cl4'
_cell_volume   142.10101949
_cell_formula_units_Z   4
loop_
 _symmetry_equiv_pos_site_id
 _symmetry_equiv_pos_as_xyz
  1  'x, y, z'
loop_
 _atom_site_type_symbol
 _atom_site_label
 _atom_site_symmetry_multiplicity
 _atom_site_fract_x
 _atom_site_fract_y
 _atom_site_fract_z
 _atom_site_occupancy
  Na  Na0  1  0.26398852  0.45626869  0.39065120  1.0
  Na  Na1  1  0.54976598  0.09388942  0.05447113  1.0
  Na  Na2  1  0.64479264  0.88833513  0.73988507  1.0
  Na  Na3  1  0.07532561  0.05482218  0.17169690  1.0
  Cl  Cl4  1  0.02636767  0.19255123  0.21337670  1.0
  Cl  Cl5  1  0.72025553  0.08075200  0.59044892  1.0
  Cl  Cl6  1  0.79090212  0.77580953  0.88039736  1.0
  Cl  Cl7  1  0.50188292  0.80455379  0.98154282  1.0
