# generated using pymatgen
data_NaCl
_symmetry_space_group_name_H-M   'P 1'
_cell_length_a   6.48098951
_cell_length_b   6.58514356
_cell_length_c   7.95413427
_cell_angle_alpha   90.00000000
_cell_angle_beta   90.00000000
_cell_angle_gamma   90.00000000
_symmetry_Int_Tables_number   1
_chemical_formula_structural   NaCl
_chemical_formula_sum   'Na4 Cl4'
_cell_volume   339.46850175
_cell_formula_units_Z   4
loop_
 _symmetry_equiv_pos_site_id
 _symmetry_equiv_pos_as_xyz
  1  'x, y, z'
loop_
 _atom_site_type_symbol
 _atom_site_label
 _atom_site_symmetry_multiplicity
 _atom_site_fract_x
 _atom_site_fract_y
 _atom_site_fract_z
 _atom_site_occupancy
  Na  Na0  1  0.00000000  0.47465016  0.36808444  1.0
  Na  Na1  1  0.00000000  0.04104809  0.53889258  1.0
  Na  Na2  1  0.00000000  0.35807964  0.22400400  1.0
  Na  Na3  1  0.00000000  0.57387207  0.14238055  1.0
  Cl  Cl4  1  0.50000000  0.32623895  0.13116980  1.0
  Cl  Cl5  1  0.50000000  0.07345736  0.04674549  1.0
  Cl  Cl6  1  0.50000000  0.33487527  0.40731776  1.0
  Cl  Cl7  1  0.50000000  0.36059097  0.97041558  1.0
