# generated using pymatgen
data_NaCl
_symmetry_space_group_name_H-M   'P 1'
_cell_length_a   2.00085351
_cell_length_b   9.74625396
_cell_length_c   4.98521975
_cell_angle_alpha   90.00000000
_cell_angle_beta   90.00000000
_cell_angle_gamma   90.00000000
_symmetry_Int_Tables_number   1
_chemical_formula_structural   NaCl
_chemical_formula_sum   'Na4 Cl4'
_cell_volume   97.21590514
_cell_formula_units_Z   4
loop_
 _symmetry_equiv_pos_site_id
 _symmetry_equiv_pos_as_xyz
  1  'x, y, z'
loop_
 _atom_site_type_symbol
 _atom_site_label
 _atom_site_symmetry_multiplicity
 _atom_site_fract_x
 _atom_site_fract_y
 _atom_site_fract_z
 _atom_site_occupancy
  Na  Na0  1  0.00000000  0.76715158  0.31543276  1.0
  Na  Na1  1  0.00000000  0.17274554  0.20732743  1.0
  Na  Na2  1  0.50000000  0.30991519  0.58003662  1.0
  Na  Na3  1  0.50000000  0.64163987  0.50427407  1.0
  Cl  Cl4  1  0.00000000  0.00000000  0.27215022  1.0
  Cl  Cl5  1  0.50000000  0.50000000  0.43425162  1.0
  Cl  Cl6  1  0.00000000  0.50000000  0.91001716  1.0
  Cl  Cl7  1  0.50000000  0.00000000  0.30957351  1.0
