# generated using pymatgen
data_NaCl
_symmetry_space_group_name_H-M   'P 1'
_cell_length_a   5.53669596
_cell_length_b   3.35878273
_cell_length_c   8.71734166
_cell_angle_alpha   90.00000000
_cell_angle_beta   90.00000000
_cell_angle_gamma   90.00000000
_symmetry_Int_Tables_number   1
_chemical_formula_structural   NaCl
_chemical_formula_sum   'Na4 Cl4'
_cell_volume   162.11255651
_cell_formula_units_Z   4
loop_
 _symmetry_equiv_pos_site_id
 _symmetry_equiv_pos_as_xyz
  1  'x, y, z'
loop_
 _atom_site_type_symbol
 _atom_site_label
 _atom_site_symmetry_multiplicity
 _atom_site_fract_x
 _atom_site_fract_y
 _atom_site_fract_z
 _atom_site_occupancy
  Na  Na0  1  0.25000000  0.62058060  0.33798366  1.0
  Na  Na1  1  0.75000000  0.01994730  0.17100719  1.0
  Na  Na2  1  0.25000000  0.13980339  0.89309317  1.0
  Na  Na3  1  0.75000000  0.57644984  0.26371402  1.0
  Cl  Cl4  1  0.00000000  0.00000000  0.12790683  1.0
  Cl  Cl5  1  0.50000000  0.00000000  0.85463512  1.0
  Cl  Cl6  1  0.00000000  0.50000000  0.43826883  1.0
  Cl  Cl7  1  0.50000000  0.50000000  0.79403448  1.0
