# generated using pymatgen
data_NaCl
_symmetry_space_group_name_H-M   'P 1'
_cell_length_a   10.41397501
_cell_length_b   2.56475844
_cell_length_c   6.27656058
_cell_angle_alpha   90.00000000
_cell_angle_beta   90.00000000
_cell_angle_gamma   90.00000000
_symmetry_Int_Tables_number   1
_chemical_formula_structural   NaCl
_chemical_formula_sum   'Na4 Cl4'
_cell_volume   167.64272968
_cell_formula_units_Z   4
loop_
 _symmetry_equiv_pos_site_id
 _symmetry_equiv_pos_as_xyz
  1  'x, y, z'
loop_
 _atom_site_type_symbol
 _atom_site_label
 _atom_site_symmetry_multiplicity
 _atom_site_fract_x
 _atom_site_fract_y
 _atom_site_fract_z
 _atom_site_occupancy
  Na  Na0  1  0.25000000  0.25000000  0.30296729  1.0
  Na  Na1  1  0.25000000  0.75000000  0.24641554  1.0
  Na  Na2  1  0.75000000  0.75000000  0.31109549  1.0
  Na  Na3  1  0.75000000  0.25000000  0.77755667  1.0
  Cl  Cl4  1  0.00000000  0.40926235  0.20399732  1.0
  Cl  Cl5  1  0.00000000  0.00046197  0.27666148  1.0
  Cl  Cl6  1  0.50000000  0.76983630  0.96462271  1.0
  Cl  Cl7  1  0.50000000  0.49937757  0.20331025  1.0
