# generated using pymatgen
data_NaCl
_symmetry_space_group_name_H-M   'P 1'
_cell_length_a   13.29734823
_cell_length_b   3.52740074
_cell_length_c   8.36719426
_cell_angle_alpha   90.00000000
_cell_angle_beta   90.00000000
_cell_angle_gamma   90.00000000
_symmetry_Int_Tables_number   1
_chemical_formula_structural   NaCl
_chemical_formula_sum   'Na4 Cl4'
_cell_volume   392.46388256
_cell_formula_units_Z   4
loop_
 _symmetry_equiv_pos_site_id
 _symmetry_equiv_pos_as_xyz
  1  'x, y, z'
loop_
 _atom_site_type_symbol
 _atom_site_label
 _atom_site_symmetry_multiplicity
 _atom_site_fract_x
 _atom_site_fract_y
 _atom_site_fract_z
 _atom_site_occupancy
  Na  Na0  1  0.35511873  0.00000000  0.45692266  1.0
  Na  Na1  1  0.59868118  0.00000000  0.26368862  1.0
  Na  Na2  1  0.89981680  0.50000000  0.45748094  1.0
  Na  Na3  1  0.17657771  0.50000000  0.88716547  1.0
  Cl  Cl4  1  0.00000000  0.00000000  0.11661999  1.0
  Cl  Cl5  1  0.50000000  0.50000000  0.53043161  1.0
  Cl  Cl6  1  0.00000000  0.50000000  0.81364446  1.0
  Cl  Cl7  1  0.50000000  0.00000000  0.27902394  1.0
