# generated using pymatgen
data_NaCl
_symmetry_space_group_name_H-M   'P 1'
_cell_length_a   6.43395876
_cell_length_b   8.50805795
_cell_length_c   6.25047541
_cell_angle_alpha   90.00000000
_cell_angle_beta   90.00000000
_cell_angle_gamma   90.00000000
_symmetry_Int_Tables_number   1
_chemical_formula_structural   NaCl
_chemical_formula_sum   'Na4 Cl4'
_cell_volume   342.15411154
_cell_formula_units_Z   4
loop_
 _symmetry_equiv_pos_site_id
 _symmetry_equiv_pos_as_xyz
  1  'x, y, z'
loop_
 _atom_site_type_symbol
 _atom_site_label
 _atom_site_symmetry_multiplicity
 _atom_site_fract_x
 _atom_site_fract_y
 _atom_site_fract_z
 _atom_site_occupancy
  Na  Na0  1  0.22838241  0.78574089  0.41025186  1.0
  Na  Na1  1  0.33355965  0.29866213  0.88639731  1.0
  Na  Na2  1  0.29506125  0.44623346  0.11785154  1.0
  Na  Na3  1  0.66287215  0.88160884  0.80478019  1.0
  Cl  Cl4  1  0.00000000  0.31598204  0.05383326  1.0
  Cl  Cl5  1  0.50000000  0.11659740  0.09403637  1.0
  Cl  Cl6  1  0.00000000  0.94166881  0.88705535  1.0
  Cl  Cl7  1  0.50000000  0.80250301  0.90649994  1.0
