# generated using pymatgen
data_NaCl
_symmetry_space_group_name_H-M   'P 1'
_cell_length_a   7.82047289
_cell_length_b   6.48695787
_cell_length_c   6.04550371
_cell_angle_alpha   90.00000000
_cell_angle_beta   90.00000000
_cell_angle_gamma   90.00000000
_symmetry_Int_Tables_number   1
_chemical_formula_structural   NaCl
_chemical_formula_sum   'Na4 Cl4'
_cell_volume   306.69492123
_cell_formula_units_Z   4
loop_
 _symmetry_equiv_pos_site_id
 _symmetry_equiv_pos_as_xyz
  1  'x, y, z'
loop_
 _atom_site_type_symbol
 _atom_site_label
 _atom_site_symmetry_multiplicity
 _atom_site_fract_x
 _atom_site_fract_y
 _atom_site_fract_z
 _atom_site_occupancy
  Na  Na0  1  0.42590880  0.55562161  0.43650357  1.0
  Na  Na1  1  0.52206745  0.14353638  0.40563355  1.0
  Na  Na2  1  0.11317860  0.11269938  0.80605345  1.0
  Na  Na3  1  0.37061239  0.89861442  0.71322651  1.0
  Cl  Cl4  1  0.25000000  0.29320005  0.29049682  1.0
  Cl  Cl5  1  0.75000000  0.03499309  0.37255407  1.0
  Cl  Cl6  1  0.25000000  0.83870995  0.90547252  1.0
  Cl  Cl7  1  0.75000000  0.73968109  0.30594709  1.0
