# generated using pymatgen
data_NaCl
_symmetry_space_group_name_H-M   'P 1'
_cell_length_a   4.91625948
_cell_length_b   7.01158448
_cell_length_c   8.72637031
_cell_angle_alpha   90.00000000
_cell_angle_beta   91.25752952
_cell_angle_gamma   90.00000000
_symmetry_Int_Tables_number   1
_chemical_formula_structural   NaCl
_chemical_formula_sum   'Na4 Cl4'
_cell_volume   300.73224397
_cell_formula_units_Z   4
loop_
 _symmetry_equiv_pos_site_id
 _symmetry_equiv_pos_as_xyz
  1  'x, y, z'
loop_
 _atom_site_type_symbol
 _atom_site_label
 _atom_site_symmetry_multiplicity
 _atom_site_fract_x
 _atom_site_fract_y
 _atom_site_fract_z
 _atom_site_occupancy
  Na  Na0  1  0.52410991  0.70630565  0.20250056  1.0
  Na  Na1  1  0.34076678  0.20641258  0.87610173  1.0
  Na  Na2  1  0.12649585  0.27840718  0.57655814  1.0
  Na  Na3  1  0.17737657  0.74015153  0.33310200  1.0
  Cl  Cl4  1  0.19405046  0.35730716  0.14061287  1.0
  Cl  Cl5  1  0.60172469  0.01635183  0.31148728  1.0
  Cl  Cl6  1  0.11330937  0.95653363  0.95182891  1.0
  Cl  Cl7  1  0.83872782  0.39033167  0.79766188  1.0
