# generated using pymatgen
data_NaCl
_symmetry_space_group_name_H-M   'P 1'
_cell_length_a   5.35851715
_cell_length_b   3.87354312
_cell_length_c   8.69873295
_cell_angle_alpha   90.00000000
_cell_angle_beta   90.00000000
_cell_angle_gamma   90.00000000
_symmetry_Int_Tables_number   1
_chemical_formula_structural   NaCl
_chemical_formula_sum   'Na4 Cl4'
_cell_volume   180.55479153
_cell_formula_units_Z   4
loop_
 _symmetry_equiv_pos_site_id
 _symmetry_equiv_pos_as_xyz
  1  'x, y, z'
loop_
 _atom_site_type_symbol
 _atom_site_label
 _atom_site_symmetry_multiplicity
 _atom_site_fract_x
 _atom_site_fract_y
 _atom_site_fract_z
 _atom_site_occupancy
  Na  Na0  1  0.00000000  0.64629767  0.33094289  1.0
  Na  Na1  1  0.00000000  0.04196499  0.64201568  1.0
  Na  Na2  1  0.50000000  0.15701419  0.36834651  1.0
  Na  Na3  1  0.50000000  0.56436626  0.30603918  1.0
  Cl  Cl4  1  0.00000000  0.15885768  0.10485057  1.0
  Cl  Cl5  1  0.00000000  0.03288730  0.32859300  1.0
  Cl  Cl6  1  0.50000000  0.38554021  0.96849129  1.0
  Cl  Cl7  1  0.50000000  0.45816178  0.75013615  1.0
