# generated using pymatgen
data_NaCl
_symmetry_space_group_name_H-M   'P 1'
_cell_length_a   5.48614043
_cell_length_b   3.71663059
_cell_length_c   10.26644533
_cell_angle_alpha   90.00000000
_cell_angle_beta   90.00000000
_cell_angle_gamma   90.00000000
_symmetry_Int_Tables_number   1
_chemical_formula_structural   NaCl
_chemical_formula_sum   'Na4 Cl4'
_cell_volume   209.33238234
_cell_formula_units_Z   4
loop_
 _symmetry_equiv_pos_site_id
 _symmetry_equiv_pos_as_xyz
  1  'x, y, z'
loop_
 _atom_site_type_symbol
 _atom_site_label
 _atom_site_symmetry_multiplicity
 _atom_site_fract_x
 _atom_site_fract_y
 _atom_site_fract_z
 _atom_site_occupancy
  Na  Na0  1  0.25000000  0.25000000  0.41689018  1.0
  Na  Na1  1  0.25000000  0.75000000  0.12969719  1.0
  Na  Na2  1  0.75000000  0.75000000  0.41430135  1.0
  Na  Na3  1  0.75000000  0.25000000  0.80016766  1.0
  Cl  Cl4  1  0.00000000  0.16571721  0.20181464  1.0
  Cl  Cl5  1  0.00000000  0.07849005  0.63577528  1.0
  Cl  Cl6  1  0.50000000  0.03759196  0.90487341  1.0
  Cl  Cl7  1  0.50000000  0.44631115  0.34641979  1.0
