# generated using pymatgen
data_NaCl
_symmetry_space_group_name_H-M   'P 1'
_cell_length_a   5.90476667
_cell_length_b   5.90476667
_cell_length_c   10.76223023
_cell_angle_alpha   90.00000000
_cell_angle_beta   90.00000000
_cell_angle_gamma   90.00000000
_symmetry_Int_Tables_number   1
_chemical_formula_structural   NaCl
_chemical_formula_sum   'Na4 Cl4'
_cell_volume   375.23881884
_cell_formula_units_Z   4
loop_
 _symmetry_equiv_pos_site_id
 _symmetry_equiv_pos_as_xyz
  1  'x, y, z'
loop_
 _atom_site_type_symbol
 _atom_site_label
 _atom_site_symmetry_multiplicity
 _atom_site_fract_x
 _atom_site_fract_y
 _atom_site_fract_z
 _atom_site_occupancy
  Na  Na0  1  0.56723628  0.07947012  0.16321100  1.0
  Na  Na1  1  0.41639087  0.00033305  0.69508384  1.0
  Na  Na2  1  0.60249711  0.17083896  0.65745989  1.0
  Na  Na3  1  0.74970566  0.82921797  0.45828620  1.0
  Cl  Cl4  1  0.32206796  0.16684311  0.26525863  1.0
  Cl  Cl5  1  0.28358796  0.04987292  0.46275715  1.0
  Cl  Cl6  1  0.05156974  0.56464943  0.21121726  1.0
  Cl  Cl7  1  0.09840471  0.69324785  0.14121060  1.0
