# generated using pymatgen
data_NaCl
_symmetry_space_group_name_H-M   'P 1'
_cell_length_a   7.62309573
_cell_length_b   7.62309573
_cell_length_c   6.52753244
_cell_angle_alpha   90.00000000
_cell_angle_beta   90.00000000
_cell_angle_gamma   90.00000000
_symmetry_Int_Tables_number   1
_chemical_formula_structural   NaCl
_chemical_formula_sum   'Na4 Cl4'
_cell_volume   379.32527913
_cell_formula_units_Z   4
loop_
 _symmetry_equiv_pos_site_id
 _symmetry_equiv_pos_as_xyz
  1  'x, y, z'
loop_
 _atom_site_type_symbol
 _atom_site_label
 _atom_site_symmetry_multiplicity
 _atom_site_fract_x
 _atom_site_fract_y
 _atom_site_fract_z
 _atom_site_occupancy
  Na  Na0  1  0.54446967  0.86827832  0.15338501  1.0
  Na  Na1  1  0.30225569  0.24993036  0.85673923  1.0
  Na  Na2  1  0.41164576  0.47478961  0.75026801  1.0
  Na  Na3  1  0.85236276  0.87279401  0.66456926  1.0
  Cl  Cl4  1  0.25603786  0.13990247  0.25602293  1.0
  Cl  Cl5  1  0.43080910  0.00022666  0.29922773  1.0
  Cl  Cl6  1  0.55356880  0.54097342  0.56478621  1.0
  Cl  Cl7  1  0.13391865  0.48029625  0.20959900  1.0
