# generated using pymatgen
data_NaCl
_symmetry_space_group_name_H-M   'P 1'
_cell_length_a   2.03393859
_cell_length_b   6.64265266
_cell_length_c   6.37099222
_cell_angle_alpha   90.00000000
_cell_angle_beta   88.72079532
_cell_angle_gamma   90.00000000
_symmetry_Int_Tables_number   1
_chemical_formula_structural   NaCl
_chemical_formula_sum   'Na4 Cl4'
_cell_volume   86.05541548
_cell_formula_units_Z   4
loop_
 _symmetry_equiv_pos_site_id
 _symmetry_equiv_pos_as_xyz
  1  'x, y, z'
loop_
 _atom_site_type_symbol
 _atom_site_label
 _atom_site_symmetry_multiplicity
 _atom_site_fract_x
 _atom_site_fract_y
 _atom_site_fract_z
 _atom_site_occupancy
  Na  Na0  1  0.67691404  0.89730308  0.40040016  1.0
  Na  Na1  1  0.43955594  0.45915918  0.83549679  1.0
  Na  Na2  1  0.41604856  0.72019387  0.59299037  1.0
  Na  Na3  1  0.76164236  0.31271578  0.29962973  1.0
  Cl  Cl4  1  0.00107255  0.08141606  0.18581310  1.0
  Cl  Cl5  1  0.20584685  0.42706362  0.34038004  1.0
  Cl  Cl6  1  0.48131448  0.90643532  0.10410439  1.0
  Cl  Cl7  1  0.59781684  0.64331060  0.86272059  1.0
