# generated using pymatgen
data_NaCl
_symmetry_space_group_name_H-M   'P 1'
_cell_length_a   6.03645436
_cell_length_b   4.17473371
_cell_length_c   6.84092135
_cell_angle_alpha   90.00000000
_cell_angle_beta   94.68169534
_cell_angle_gamma   90.00000000
_symmetry_Int_Tables_number   1
_chemical_formula_structural   NaCl
_chemical_formula_sum   'Na4 Cl4'
_cell_volume   171.82005634
_cell_formula_units_Z   4
loop_
 _symmetry_equiv_pos_site_id
 _symmetry_equiv_pos_as_xyz
  1  'x, y, z'
loop_
 _atom_site_type_symbol
 _atom_site_label
 _atom_site_symmetry_multiplicity
 _atom_site_fract_x
 _atom_site_fract_y
 _atom_site_fract_z
 _atom_site_occupancy
  Na  Na0  1  0.44971942  0.68455525  0.31403271  1.0
  Na  Na1  1  0.40880212  0.22269430  0.20153575  1.0
  Na  Na2  1  0.13013271  0.20865805  0.54049889  1.0
  Na  Na3  1  0.69039787  0.67871927  0.90177320  1.0
  Cl  Cl4  1  0.22494143  0.00000000  0.11444155  1.0
  Cl  Cl5  1  0.06821555  0.50000000  0.80635617  1.0
  Cl  Cl6  1  0.39531610  0.00000000  0.95546709  1.0
  Cl  Cl7  1  0.82826196  0.50000000  0.51376863  1.0
