# generated using pymatgen
data_NaCl
_symmetry_space_group_name_H-M   'P 1'
_cell_length_a   6.62628764
_cell_length_b   6.62628764
_cell_length_c   7.02420449
_cell_angle_alpha   90.00000000
_cell_angle_beta   90.00000000
_cell_angle_gamma   90.00000000
_symmetry_Int_Tables_number   1
_chemical_formula_structural   NaCl
_chemical_formula_sum   'Na4 Cl4'
_cell_volume   308.41657841
_cell_formula_units_Z   4
loop_
 _symmetry_equiv_pos_site_id
 _symmetry_equiv_pos_as_xyz
  1  'x, y, z'
loop_
 _atom_site_type_symbol
 _atom_site_label
 _atom_site_symmetry_multiplicity
 _atom_site_fract_x
 _atom_site_fract_y
 _atom_site_fract_z
 _atom_site_occupancy
  Na  Na0  1  0.48509161  0.63206564  0.25975090  1.0
  Na  Na1  1  0.35554449  0.26507694  0.67509291  1.0
  Na  Na2  1  0.26660181  0.45672789  0.23070539  1.0
  Na  Na3  1  0.90224519  0.19970744  0.24809730  1.0
  Cl  Cl4  1  0.27251024  0.10621637  0.15723926  1.0
  Cl  Cl5  1  0.45938158  0.07801857  0.22081472  1.0
  Cl  Cl6  1  0.52892156  0.00714378  0.09066377  1.0
  Cl  Cl7  1  0.02610162  0.55832944  0.73930415  1.0
