# generated using pymatgen
data_NaCl
_symmetry_space_group_name_H-M   'P 1'
_cell_length_a   4.33223074
_cell_length_b   5.59971096
_cell_length_c   9.29184847
_cell_angle_alpha   71.65561902
_cell_angle_beta   78.09369239
_cell_angle_gamma   66.92912127
_symmetry_Int_Tables_number   1
_chemical_formula_structural   NaCl
_chemical_formula_sum   'Na4 Cl4'
_cell_volume   195.95523122
_cell_formula_units_Z   4
loop_
 _symmetry_equiv_pos_site_id
 _symmetry_equiv_pos_as_xyz
  1  'x, y, z'
loop_
 _atom_site_type_symbol
 _atom_site_label
 _atom_site_symmetry_multiplicity
 _atom_site_fract_x
 _atom_site_fract_y
 _atom_site_fract_z
 _atom_site_occupancy
  Na  Na0  1  0.00000000  0.50000000  0.00000000  1.0
  Na  Na1  1  0.00000000  0.50000000  0.50000000  1.0
  Na  Na2  1  0.58514355  0.70415856  0.47808553  1.0
  Na  Na3  1  0.76966661  0.20535112  0.84531194  1.0
  Cl  Cl4  1  0.00000000  0.00000000  0.00000000  1.0
  Cl  Cl5  1  0.50000000  0.00000000  0.00000000  1.0
  Cl  Cl6  1  0.26522742  0.93343668  0.71481701  1.0
  Cl  Cl7  1  0.57380569  0.86798690  0.52424812  1.0
