# generated using pymatgen
data_NaCl
_symmetry_space_group_name_H-M   'P 1'
_cell_length_a   6.44328897
_cell_length_b   6.44328897
_cell_length_c   6.29416709
_cell_angle_alpha   90.00000000
_cell_angle_beta   90.00000000
_cell_angle_gamma   90.00000000
_symmetry_Int_Tables_number   1
_chemical_formula_structural   NaCl
_chemical_formula_sum   'Na4 Cl4'
_cell_volume   261.30846940
_cell_formula_units_Z   4
loop_
 _symmetry_equiv_pos_site_id
 _symmetry_equiv_pos_as_xyz
  1  'x, y, z'
loop_
 _atom_site_type_symbol
 _atom_site_label
 _atom_site_symmetry_multiplicity
 _atom_site_fract_x
 _atom_site_fract_y
 _atom_site_fract_z
 _atom_site_occupancy
  Na  Na0  1  0.95065543  0.95065543  0.00000000  1.0
  Na  Na1  1  0.80639395  0.80639395  0.50000000  1.0
  Na  Na2  1  0.58396270  0.41603730  0.25000000  1.0
  Na  Na3  1  0.03258096  0.96741904  0.75000000  1.0
  Cl  Cl4  1  0.79297991  0.79297991  0.00000000  1.0
  Cl  Cl5  1  0.46298566  0.46298566  0.50000000  1.0
  Cl  Cl6  1  0.26926171  0.73073829  0.25000000  1.0
  Cl  Cl7  1  0.23208711  0.76791289  0.75000000  1.0
