# generated using pymatgen
data_NaCl
_symmetry_space_group_name_H-M   'P 1'
_cell_length_a   6.18348357
_cell_length_b   11.00952800
_cell_length_c   3.05143667
_cell_angle_alpha   90.00000000
_cell_angle_beta   90.00000000
_cell_angle_gamma   90.00000000
_symmetry_Int_Tables_number   1
_chemical_formula_structural   NaCl
_chemical_formula_sum   'Na4 Cl4'
_cell_volume   207.73337280
_cell_formula_units_Z   4
loop_
 _symmetry_equiv_pos_site_id
 _symmetry_equiv_pos_as_xyz
  1  'x, y, z'
loop_
 _atom_site_type_symbol
 _atom_site_label
 _atom_site_symmetry_multiplicity
 _atom_site_fract_x
 _atom_site_fract_y
 _atom_site_fract_z
 _atom_site_occupancy
  Na  Na0  1  0.34272820  0.53268770  0.25000000  1.0
  Na  Na1  1  0.35555024  0.07188934  0.75000000  1.0
  Na  Na2  1  0.39646110  0.40878007  0.25000000  1.0
  Na  Na3  1  0.11970435  0.55853532  0.75000000  1.0
  Cl  Cl4  1  0.07096659  0.25000000  0.00000000  1.0
  Cl  Cl5  1  0.35399375  0.75000000  0.50000000  1.0
  Cl  Cl6  1  0.32668440  0.75000000  0.00000000  1.0
  Cl  Cl7  1  0.48075843  0.25000000  0.50000000  1.0
