# generated using pymatgen
data_NaCl
_symmetry_space_group_name_H-M   'P 1'
_cell_length_a   5.19023438
_cell_length_b   2.90295426
_cell_length_c   8.32273475
_cell_angle_alpha   90.00000000
_cell_angle_beta   73.54147784
_cell_angle_gamma   90.00000000
_symmetry_Int_Tables_number   1
_chemical_formula_structural   NaCl
_chemical_formula_sum   'Na4 Cl4'
_cell_volume   120.26055002
_cell_formula_units_Z   4
loop_
 _symmetry_equiv_pos_site_id
 _symmetry_equiv_pos_as_xyz
  1  'x, y, z'
loop_
 _atom_site_type_symbol
 _atom_site_label
 _atom_site_symmetry_multiplicity
 _atom_site_fract_x
 _atom_site_fract_y
 _atom_site_fract_z
 _atom_site_occupancy
  Na  Na0  1  0.00000000  0.00000000  0.50000000  1.0
  Na  Na1  1  0.00000000  0.50000000  0.00000000  1.0
  Na  Na2  1  0.50000000  0.00000000  0.50000000  1.0
  Na  Na3  1  0.50000000  0.50000000  0.00000000  1.0
  Cl  Cl4  1  0.21881834  0.07439248  0.18975371  1.0
  Cl  Cl5  1  0.33250000  0.46486561  0.66095842  1.0
  Cl  Cl6  1  0.59122613  0.00022846  0.14317949  1.0
  Cl  Cl7  1  0.34185137  0.44564746  0.79367278  1.0
