# generated using pymatgen
data_NaCl
_symmetry_space_group_name_H-M   'P 1'
_cell_length_a   6.18545359
_cell_length_b   6.18545359
_cell_length_c   6.50040423
_cell_angle_alpha   90.00000000
_cell_angle_beta   90.00000000
_cell_angle_gamma   90.00000000
_symmetry_Int_Tables_number   1
_chemical_formula_structural   NaCl
_chemical_formula_sum   'Na4 Cl4'
_cell_volume   248.70440051
_cell_formula_units_Z   4
loop_
 _symmetry_equiv_pos_site_id
 _symmetry_equiv_pos_as_xyz
  1  'x, y, z'
loop_
 _atom_site_type_symbol
 _atom_site_label
 _atom_site_symmetry_multiplicity
 _atom_site_fract_x
 _atom_site_fract_y
 _atom_site_fract_z
 _atom_site_occupancy
  Na  Na0  1  0.53095207  0.76147555  0.18893390  1.0
  Na  Na1  1  0.60971823  0.25461176  0.94340737  1.0
  Na  Na2  1  0.16095040  0.49342046  0.96283574  1.0
  Na  Na3  1  0.62335774  0.87088097  0.59848643  1.0
  Cl  Cl4  1  0.12990680  0.29254754  0.33473377  1.0
  Cl  Cl5  1  0.35870075  0.08359670  0.23146649  1.0
  Cl  Cl6  1  0.88822450  0.60945425  0.20292412  1.0
  Cl  Cl7  1  0.08702745  0.48576587  0.36927575  1.0
