# generated using pymatgen
data_NaCl
_symmetry_space_group_name_H-M   'P 1'
_cell_length_a   5.98948200
_cell_length_b   6.58462819
_cell_length_c   7.52818138
_cell_angle_alpha   90.00000000
_cell_angle_beta   90.00000000
_cell_angle_gamma   90.00000000
_symmetry_Int_Tables_number   1
_chemical_formula_structural   NaCl
_chemical_formula_sum   'Na4 Cl4'
_cell_volume   296.90027185
_cell_formula_units_Z   4
loop_
 _symmetry_equiv_pos_site_id
 _symmetry_equiv_pos_as_xyz
  1  'x, y, z'
loop_
 _atom_site_type_symbol
 _atom_site_label
 _atom_site_symmetry_multiplicity
 _atom_site_fract_x
 _atom_site_fract_y
 _atom_site_fract_z
 _atom_site_occupancy
  Na  Na0  1  0.25000000  0.64476386  0.23318914  1.0
  Na  Na1  1  0.75000000  0.19302640  0.35909907  1.0
  Na  Na2  1  0.25000000  0.29553720  0.61728561  1.0
  Na  Na3  1  0.75000000  0.52897610  0.47073041  1.0
  Cl  Cl4  1  0.25000000  0.16050964  0.15384588  1.0
  Cl  Cl5  1  0.75000000  0.02767237  0.80661933  1.0
  Cl  Cl6  1  0.25000000  0.96773574  0.45640140  1.0
  Cl  Cl7  1  0.75000000  0.37347265  0.07222153  1.0
