# generated using pymatgen
data_NaCl
_symmetry_space_group_name_H-M   'P 1'
_cell_length_a   5.12036663
_cell_length_b   7.59272260
_cell_length_c   5.97673555
_cell_angle_alpha   90.00000000
_cell_angle_beta   90.00000000
_cell_angle_gamma   90.00000000
_symmetry_Int_Tables_number   1
_chemical_formula_structural   NaCl
_chemical_formula_sum   'Na4 Cl4'
_cell_volume   232.36067639
_cell_formula_units_Z   4
loop_
 _symmetry_equiv_pos_site_id
 _symmetry_equiv_pos_as_xyz
  1  'x, y, z'
loop_
 _atom_site_type_symbol
 _atom_site_label
 _atom_site_symmetry_multiplicity
 _atom_site_fract_x
 _atom_site_fract_y
 _atom_site_fract_z
 _atom_site_occupancy
  Na  Na0  1  0.50000000  0.27087629  0.18723464  1.0
  Na  Na1  1  0.50000000  0.28067513  0.79909187  1.0
  Na  Na2  1  0.50000000  0.70870549  0.62939905  1.0
  Na  Na3  1  0.50000000  0.15267515  0.38045248  1.0
  Cl  Cl4  1  0.00000000  0.36983366  0.42669327  1.0
  Cl  Cl5  1  0.00000000  0.14438034  0.22593270  1.0
  Cl  Cl6  1  0.50000000  0.42232575  0.31141712  1.0
  Cl  Cl7  1  0.50000000  0.93301604  0.98665071  1.0
