# generated using pymatgen
data_NaCl
_symmetry_space_group_name_H-M   'P 1'
_cell_length_a   5.56442057
_cell_length_b   10.20330898
_cell_length_c   5.02288813
_cell_angle_alpha   90.00000000
_cell_angle_beta   90.00000000
_cell_angle_gamma   90.00000000
_symmetry_Int_Tables_number   1
_chemical_formula_structural   NaCl
_chemical_formula_sum   'Na4 Cl4'
_cell_volume   285.17699693
_cell_formula_units_Z   4
loop_
 _symmetry_equiv_pos_site_id
 _symmetry_equiv_pos_as_xyz
  1  'x, y, z'
loop_
 _atom_site_type_symbol
 _atom_site_label
 _atom_site_symmetry_multiplicity
 _atom_site_fract_x
 _atom_site_fract_y
 _atom_site_fract_z
 _atom_site_occupancy
  Na  Na0  1  0.00000000  0.67032917  0.60259304  1.0
  Na  Na1  1  0.00000000  0.19950104  0.97159395  1.0
  Na  Na2  1  0.50000000  0.75674270  0.63109178  1.0
  Na  Na3  1  0.50000000  0.34626664  0.46935531  1.0
  Cl  Cl4  1  0.50000000  0.29265751  0.27905082  1.0
  Cl  Cl5  1  0.50000000  0.02116804  0.26757281  1.0
  Cl  Cl6  1  0.50000000  0.85731669  0.86680846  1.0
  Cl  Cl7  1  0.50000000  0.79629745  0.05054333  1.0
