# generated using pymatgen
data_NaCl
_symmetry_space_group_name_H-M   'P 1'
_cell_length_a   6.40556950
_cell_length_b   11.23221751
_cell_length_c   5.72328257
_cell_angle_alpha   90.00000000
_cell_angle_beta   90.00000000
_cell_angle_gamma   90.00000000
_symmetry_Int_Tables_number   1
_chemical_formula_structural   NaCl
_chemical_formula_sum   'Na4 Cl4'
_cell_volume   411.78302623
_cell_formula_units_Z   4
loop_
 _symmetry_equiv_pos_site_id
 _symmetry_equiv_pos_as_xyz
  1  'x, y, z'
loop_
 _atom_site_type_symbol
 _atom_site_label
 _atom_site_symmetry_multiplicity
 _atom_site_fract_x
 _atom_site_fract_y
 _atom_site_fract_z
 _atom_site_occupancy
  Na  Na0  1  0.41111552  0.60854640  0.49023734  1.0
  Na  Na1  1  0.75126778  0.13113091  0.46896217  1.0
  Na  Na2  1  0.61714602  0.64879226  0.42787222  1.0
  Na  Na3  1  0.63066112  0.49680131  0.10125772  1.0
  Cl  Cl4  1  0.50000000  0.00000000  0.14393618  1.0
  Cl  Cl5  1  0.50000000  0.50000000  0.60776416  1.0
  Cl  Cl6  1  0.50000000  0.00000000  0.81650070  1.0
  Cl  Cl7  1  0.50000000  0.50000000  0.93848806  1.0
