# generated using pymatgen
data_NaCl
_symmetry_space_group_name_H-M   'P 1'
_cell_length_a   8.09749817
_cell_length_b   5.22703286
_cell_length_c   7.36361243
_cell_angle_alpha   90.00000000
_cell_angle_beta   90.00000000
_cell_angle_gamma   90.00000000
_symmetry_Int_Tables_number   1
_chemical_formula_structural   NaCl
_chemical_formula_sum   'Na4 Cl4'
_cell_volume   311.67144249
_cell_formula_units_Z   4
loop_
 _symmetry_equiv_pos_site_id
 _symmetry_equiv_pos_as_xyz
  1  'x, y, z'
loop_
 _atom_site_type_symbol
 _atom_site_label
 _atom_site_symmetry_multiplicity
 _atom_site_fract_x
 _atom_site_fract_y
 _atom_site_fract_z
 _atom_site_occupancy
  Na  Na0  1  0.00000000  0.79537808  0.48498302  1.0
  Na  Na1  1  0.00000000  0.13978090  0.81094441  1.0
  Na  Na2  1  0.50000000  0.11905468  0.56657936  1.0
  Na  Na3  1  0.50000000  0.57701353  0.36996412  1.0
  Cl  Cl4  1  0.00000000  0.23114806  0.08582590  1.0
  Cl  Cl5  1  0.00000000  0.07207837  0.28264589  1.0
  Cl  Cl6  1  0.50000000  0.49933217  0.86642837  1.0
  Cl  Cl7  1  0.50000000  0.36918850  0.49938475  1.0
