# generated using pymatgen
data_NaCl
_symmetry_space_group_name_H-M   'P 1'
_cell_length_a   4.81739354
_cell_length_b   5.62699523
_cell_length_c   8.72080424
_cell_angle_alpha   90.00000000
_cell_angle_beta   90.00000000
_cell_angle_gamma   90.00000000
_symmetry_Int_Tables_number   1
_chemical_formula_structural   NaCl
_chemical_formula_sum   'Na4 Cl4'
_cell_volume   236.39876900
_cell_formula_units_Z   4
loop_
 _symmetry_equiv_pos_site_id
 _symmetry_equiv_pos_as_xyz
  1  'x, y, z'
loop_
 _atom_site_type_symbol
 _atom_site_label
 _atom_site_symmetry_multiplicity
 _atom_site_fract_x
 _atom_site_fract_y
 _atom_site_fract_z
 _atom_site_occupancy
  Na  Na0  1  0.49564787  0.00000000  0.38804444  1.0
  Na  Na1  1  0.53224212  0.00000000  0.13106118  1.0
  Na  Na2  1  0.21571465  0.50000000  0.97778129  1.0
  Na  Na3  1  0.30163034  0.50000000  0.39002733  1.0
  Cl  Cl4  1  0.00000000  0.00000000  0.20373901  1.0
  Cl  Cl5  1  0.50000000  0.50000000  0.30976004  1.0
  Cl  Cl6  1  0.00000000  0.00000000  0.91433323  1.0
  Cl  Cl7  1  0.50000000  0.50000000  0.71347393  1.0
