# generated using pymatgen
data_NaCl
_symmetry_space_group_name_H-M   'P 1'
_cell_length_a   4.86884688
_cell_length_b   4.01276114
_cell_length_c   11.29233641
_cell_angle_alpha   90.00000000
_cell_angle_beta   83.27341494
_cell_angle_gamma   90.00000000
_symmetry_Int_Tables_number   1
_chemical_formula_structural   NaCl
_chemical_formula_sum   'Na4 Cl4'
_cell_volume   219.10555612
_cell_formula_units_Z   4
loop_
 _symmetry_equiv_pos_site_id
 _symmetry_equiv_pos_as_xyz
  1  'x, y, z'
loop_
 _atom_site_type_symbol
 _atom_site_label
 _atom_site_symmetry_multiplicity
 _atom_site_fract_x
 _atom_site_fract_y
 _atom_site_fract_z
 _atom_site_occupancy
  Na  Na0  1  0.47385625  0.69618361  0.35185966  1.0
  Na  Na1  1  0.49827445  0.36220135  0.95140125  1.0
  Na  Na2  1  0.48123671  0.65036668  0.53703698  1.0
  Na  Na3  1  0.78256065  0.33707778  0.22181585  1.0
  Cl  Cl4  1  0.20406915  0.10629890  0.25946086  1.0
  Cl  Cl5  1  0.37784713  0.46849623  0.22981396  1.0
  Cl  Cl6  1  0.49727577  0.84194387  0.99935882  1.0
  Cl  Cl7  1  0.63180609  0.61390624  0.74117773  1.0
