# generated using pymatgen
data_NaCl
_symmetry_space_group_name_H-M   'P 1'
_cell_length_a   4.10213980
_cell_length_b   6.54668219
_cell_length_c   10.09989458
_cell_angle_alpha   90.00000000
_cell_angle_beta   72.10759855
_cell_angle_gamma   90.00000000
_symmetry_Int_Tables_number   1
_chemical_formula_structural   NaCl
_chemical_formula_sum   'Na4 Cl4'
_cell_volume   258.11844161
_cell_formula_units_Z   4
loop_
 _symmetry_equiv_pos_site_id
 _symmetry_equiv_pos_as_xyz
  1  'x, y, z'
loop_
 _atom_site_type_symbol
 _atom_site_label
 _atom_site_symmetry_multiplicity
 _atom_site_fract_x
 _atom_site_fract_y
 _atom_site_fract_z
 _atom_site_occupancy
  Na  Na0  1  0.17040105  0.50000000  0.28589264  1.0
  Na  Na1  1  0.47998109  0.50000000  0.15547622  1.0
  Na  Na2  1  0.10074742  0.50000000  0.48184316  1.0
  Na  Na3  1  0.26378660  0.50000000  0.85659670  1.0
  Cl  Cl4  1  0.30382880  0.11209922  0.12740271  1.0
  Cl  Cl5  1  0.67804397  0.00008184  0.84068550  1.0
  Cl  Cl6  1  0.40729582  0.93064115  0.99995171  1.0
  Cl  Cl7  1  0.41645091  0.93845124  0.15471328  1.0
