# generated using pymatgen
data_NaCl
_symmetry_space_group_name_H-M   'P 1'
_cell_length_a   7.64420440
_cell_length_b   6.70298335
_cell_length_c   6.47621557
_cell_angle_alpha   90.00000000
_cell_angle_beta   90.00000000
_cell_angle_gamma   90.00000000
_symmetry_Int_Tables_number   1
_chemical_formula_structural   NaCl
_chemical_formula_sum   'Na4 Cl4'
_cell_volume   331.83464650
_cell_formula_units_Z   4
loop_
 _symmetry_equiv_pos_site_id
 _symmetry_equiv_pos_as_xyz
  1  'x, y, z'
loop_
 _atom_site_type_symbol
 _atom_site_label
 _atom_site_symmetry_multiplicity
 _atom_site_fract_x
 _atom_site_fract_y
 _atom_site_fract_z
 _atom_site_occupancy
  Na  Na0  1  0.52641792  0.76914013  0.33906080  1.0
  Na  Na1  1  0.66963872  0.13288288  0.78827522  1.0
  Na  Na2  1  0.94581684  0.18797175  0.54401422  1.0
  Na  Na3  1  0.40102316  0.94058637  0.46293481  1.0
  Cl  Cl4  1  0.26208456  0.14367715  0.32222856  1.0
  Cl  Cl5  1  0.60530350  0.00021955  0.26331577  1.0
  Cl  Cl6  1  0.91264637  0.07031400  0.94240997  1.0
  Cl  Cl7  1  0.14604174  0.04319276  0.94452626  1.0
