# generated using pymatgen
data_NaCl
_symmetry_space_group_name_H-M   'P 1'
_cell_length_a   5.77865205
_cell_length_b   5.77865205
_cell_length_c   5.08927378
_cell_angle_alpha   90.00000000
_cell_angle_beta   90.00000000
_cell_angle_gamma   90.00000000
_symmetry_Int_Tables_number   1
_chemical_formula_structural   NaCl
_chemical_formula_sum   'Na4 Cl4'
_cell_volume   169.94520080
_cell_formula_units_Z   4
loop_
 _symmetry_equiv_pos_site_id
 _symmetry_equiv_pos_as_xyz
  1  'x, y, z'
loop_
 _atom_site_type_symbol
 _atom_site_label
 _atom_site_symmetry_multiplicity
 _atom_site_fract_x
 _atom_site_fract_y
 _atom_site_fract_z
 _atom_site_occupancy
  Na  Na0  1  0.53274309  0.71873944  0.19963799  1.0
  Na  Na1  1  0.62461309  0.21306759  0.82002424  1.0
  Na  Na2  1  0.27018354  0.47935214  0.39017209  1.0
  Na  Na3  1  0.97045007  0.74717020  0.21219975  1.0
  Cl  Cl4  1  0.16953404  0.30618432  0.22051998  1.0
  Cl  Cl5  1  0.61178987  0.13745720  0.17023498  1.0
  Cl  Cl6  1  0.77704983  0.00165895  0.70436607  1.0
  Cl  Cl7  1  0.02686977  0.47884545  0.75665941  1.0
