# generated using pymatgen
data_NaCl
_symmetry_space_group_name_H-M   'P 1'
_cell_length_a   4.39103113
_cell_length_b   2.03828000
_cell_length_c   8.87124824
_cell_angle_alpha   90.00000000
_cell_angle_beta   88.61569761
_cell_angle_gamma   90.00000000
_symmetry_Int_Tables_number   1
_chemical_formula_structural   NaCl
_chemical_formula_sum   'Na4 Cl4'
_cell_volume   79.37583779
_cell_formula_units_Z   4
loop_
 _symmetry_equiv_pos_site_id
 _symmetry_equiv_pos_as_xyz
  1  'x, y, z'
loop_
 _atom_site_type_symbol
 _atom_site_label
 _atom_site_symmetry_multiplicity
 _atom_site_fract_x
 _atom_site_fract_y
 _atom_site_fract_z
 _atom_site_occupancy
  Na  Na0  1  0.00000000  0.00000000  0.50000000  1.0
  Na  Na1  1  0.00000000  0.50000000  0.00000000  1.0
  Na  Na2  1  0.50000000  0.00000000  0.50000000  1.0
  Na  Na3  1  0.50000000  0.50000000  0.00000000  1.0
  Cl  Cl4  1  0.14346108  0.36454520  0.16369693  1.0
  Cl  Cl5  1  0.23528650  0.27918648  0.78288751  1.0
  Cl  Cl6  1  0.68949614  0.12147261  0.24743222  1.0
  Cl  Cl7  1  0.39658802  0.41096740  0.62318743  1.0
