# generated using pymatgen
data_NaCl
_symmetry_space_group_name_H-M   'P 1'
_cell_length_a   5.83142609
_cell_length_b   5.24797973
_cell_length_c   10.45082665
_cell_angle_alpha   90.00000000
_cell_angle_beta   90.00000000
_cell_angle_gamma   90.00000000
_symmetry_Int_Tables_number   1
_chemical_formula_structural   NaCl
_chemical_formula_sum   'Na4 Cl4'
_cell_volume   319.82879998
_cell_formula_units_Z   4
loop_
 _symmetry_equiv_pos_site_id
 _symmetry_equiv_pos_as_xyz
  1  'x, y, z'
loop_
 _atom_site_type_symbol
 _atom_site_label
 _atom_site_symmetry_multiplicity
 _atom_site_fract_x
 _atom_site_fract_y
 _atom_site_fract_z
 _atom_site_occupancy
  Na  Na0  1  0.54644525  0.00000000  0.32245445  1.0
  Na  Na1  1  0.53773809  0.00000000  0.16647305  1.0
  Na  Na2  1  0.97420513  0.50000000  0.84632050  1.0
  Na  Na3  1  0.25436961  0.50000000  0.37596747  1.0
  Cl  Cl4  1  0.00000000  0.51568887  0.13650237  1.0
  Cl  Cl5  1  0.00000000  0.09197924  0.85323377  1.0
  Cl  Cl6  1  0.50000000  0.44398411  0.36189910  1.0
  Cl  Cl7  1  0.50000000  0.32064543  0.66991605  1.0
