# generated using pymatgen
data_NaCl
_symmetry_space_group_name_H-M   'P 1'
_cell_length_a   4.60311303
_cell_length_b   11.88435499
_cell_length_c   6.38765068
_cell_angle_alpha   90.00000000
_cell_angle_beta   90.00000000
_cell_angle_gamma   90.00000000
_symmetry_Int_Tables_number   1
_chemical_formula_structural   NaCl
_chemical_formula_sum   'Na4 Cl4'
_cell_volume   349.43661766
_cell_formula_units_Z   4
loop_
 _symmetry_equiv_pos_site_id
 _symmetry_equiv_pos_as_xyz
  1  'x, y, z'
loop_
 _atom_site_type_symbol
 _atom_site_label
 _atom_site_symmetry_multiplicity
 _atom_site_fract_x
 _atom_site_fract_y
 _atom_site_fract_z
 _atom_site_occupancy
  Na  Na0  1  0.25000000  0.52249679  0.11547648  1.0
  Na  Na1  1  0.75000000  0.20405001  0.29616146  1.0
  Na  Na2  1  0.75000000  0.22684219  0.03362975  1.0
  Na  Na3  1  0.25000000  0.66162219  0.29538036  1.0
  Cl  Cl4  1  0.25000000  0.01939971  0.22503620  1.0
  Cl  Cl5  1  0.75000000  0.33433206  0.76757908  1.0
  Cl  Cl6  1  0.75000000  0.56184289  0.48097743  1.0
  Cl  Cl7  1  0.25000000  0.29374787  0.94655533  1.0
