# generated using pymatgen
data_NaCl
_symmetry_space_group_name_H-M   'P 1'
_cell_length_a   5.17870717
_cell_length_b   7.14570903
_cell_length_c   10.59329070
_cell_angle_alpha   90.00000000
_cell_angle_beta   89.49630474
_cell_angle_gamma   90.00000000
_symmetry_Int_Tables_number   1
_chemical_formula_structural   NaCl
_chemical_formula_sum   'Na4 Cl4'
_cell_volume   391.99523741
_cell_formula_units_Z   4
loop_
 _symmetry_equiv_pos_site_id
 _symmetry_equiv_pos_as_xyz
  1  'x, y, z'
loop_
 _atom_site_type_symbol
 _atom_site_label
 _atom_site_symmetry_multiplicity
 _atom_site_fract_x
 _atom_site_fract_y
 _atom_site_fract_z
 _atom_site_occupancy
  Na  Na0  1  0.37091696  0.74406986  0.40379427  1.0
  Na  Na1  1  0.22035526  0.21598854  0.85647073  1.0
  Na  Na2  1  0.19204206  0.65842167  0.48216331  1.0
  Na  Na3  1  0.93987994  0.60882806  0.30909107  1.0
  Cl  Cl4  1  0.07013823  0.26257756  0.12553377  1.0
  Cl  Cl5  1  0.54678289  0.12060632  0.13780682  1.0
  Cl  Cl6  1  0.58103231  0.33783477  0.73180760  1.0
  Cl  Cl7  1  0.06406579  0.35539497  0.92429662  1.0
