# generated using pymatgen
data_NaCl
_symmetry_space_group_name_H-M   'P 1'
_cell_length_a   5.30506972
_cell_length_b   12.95057743
_cell_length_c   5.72912788
_cell_angle_alpha   90.00000000
_cell_angle_beta   77.21998742
_cell_angle_gamma   90.00000000
_symmetry_Int_Tables_number   1
_chemical_formula_structural   NaCl
_chemical_formula_sum   'Na4 Cl4'
_cell_volume   383.86125165
_cell_formula_units_Z   4
loop_
 _symmetry_equiv_pos_site_id
 _symmetry_equiv_pos_as_xyz
  1  'x, y, z'
loop_
 _atom_site_type_symbol
 _atom_site_label
 _atom_site_symmetry_multiplicity
 _atom_site_fract_x
 _atom_site_fract_y
 _atom_site_fract_z
 _atom_site_occupancy
  Na  Na0  1  0.37340479  0.00000000  0.41759790  1.0
  Na  Na1  1  0.70843874  0.00000000  0.59763554  1.0
  Na  Na2  1  0.10466104  0.50000000  0.88381484  1.0
  Na  Na3  1  0.14991665  0.50000000  0.39939598  1.0
  Cl  Cl4  1  0.00000000  0.19235131  0.00000000  1.0
  Cl  Cl5  1  0.00000000  0.02947689  0.00000000  1.0
  Cl  Cl6  1  0.50000000  0.21323942  0.00000000  1.0
  Cl  Cl7  1  0.50000000  0.37053098  0.00000000  1.0
