# generated using pymatgen
data_NaCl
_symmetry_space_group_name_H-M   'P 1'
_cell_length_a   5.38251718
_cell_length_b   6.77397820
_cell_length_c   6.99327242
_cell_angle_alpha   90.00000000
_cell_angle_beta   90.00000000
_cell_angle_gamma   90.00000000
_symmetry_Int_Tables_number   1
_chemical_formula_structural   NaCl
_chemical_formula_sum   'Na4 Cl4'
_cell_volume   254.98208361
_cell_formula_units_Z   4
loop_
 _symmetry_equiv_pos_site_id
 _symmetry_equiv_pos_as_xyz
  1  'x, y, z'
loop_
 _atom_site_type_symbol
 _atom_site_label
 _atom_site_symmetry_multiplicity
 _atom_site_fract_x
 _atom_site_fract_y
 _atom_site_fract_z
 _atom_site_occupancy
  Na  Na0  1  0.40677949  0.53786067  0.48412088  1.0
  Na  Na1  1  0.50085796  0.06587390  0.04467737  1.0
  Na  Na2  1  0.56627014  0.14539518  0.32321204  1.0
  Na  Na3  1  0.32612655  0.99907020  0.69865424  1.0
  Cl  Cl4  1  0.00000000  0.24629609  0.15864611  1.0
  Cl  Cl5  1  0.00000000  0.04480702  0.68373354  1.0
  Cl  Cl6  1  0.50000000  0.82935359  0.89867082  1.0
  Cl  Cl7  1  0.50000000  0.15816074  0.87655195  1.0
