# generated using pymatgen
data_NaCl
_symmetry_space_group_name_H-M   'P 1'
_cell_length_a   6.98054845
_cell_length_b   6.98054845
_cell_length_c   7.92546998
_cell_angle_alpha   90.00000000
_cell_angle_beta   90.00000000
_cell_angle_gamma   90.00000000
_symmetry_Int_Tables_number   1
_chemical_formula_structural   NaCl
_chemical_formula_sum   'Na4 Cl4'
_cell_volume   386.19275026
_cell_formula_units_Z   4
loop_
 _symmetry_equiv_pos_site_id
 _symmetry_equiv_pos_as_xyz
  1  'x, y, z'
loop_
 _atom_site_type_symbol
 _atom_site_label
 _atom_site_symmetry_multiplicity
 _atom_site_fract_x
 _atom_site_fract_y
 _atom_site_fract_z
 _atom_site_occupancy
  Na  Na0  1  0.56026586  0.59583318  0.41618568  1.0
  Na  Na1  1  0.59101320  0.12991760  0.72811341  1.0
  Na  Na2  1  0.27832343  0.47368035  0.66248671  1.0
  Na  Na3  1  0.88383739  0.77654615  0.60996713  1.0
  Cl  Cl4  1  0.25723077  0.18464741  0.18843630  1.0
  Cl  Cl5  1  0.36040416  0.04651096  0.25398643  1.0
  Cl  Cl6  1  0.16366215  0.47468971  0.15498802  1.0
  Cl  Cl7  1  0.10236574  0.61033857  0.03726725  1.0
