# generated using pymatgen
data_NaCl
_symmetry_space_group_name_H-M   'P 1'
_cell_length_a   5.63371342
_cell_length_b   6.88560812
_cell_length_c   7.63886600
_cell_angle_alpha   90.00000000
_cell_angle_beta   90.00000000
_cell_angle_gamma   90.00000000
_symmetry_Int_Tables_number   1
_chemical_formula_structural   NaCl
_chemical_formula_sum   'Na4 Cl4'
_cell_volume   296.32339792
_cell_formula_units_Z   4
loop_
 _symmetry_equiv_pos_site_id
 _symmetry_equiv_pos_as_xyz
  1  'x, y, z'
loop_
 _atom_site_type_symbol
 _atom_site_label
 _atom_site_symmetry_multiplicity
 _atom_site_fract_x
 _atom_site_fract_y
 _atom_site_fract_z
 _atom_site_occupancy
  Na  Na0  1  0.46799393  0.64708346  0.22605274  1.0
  Na  Na1  1  0.10662158  0.26218314  0.78959236  1.0
  Na  Na2  1  0.45706061  0.20332515  0.84533718  1.0
  Na  Na3  1  0.69464131  0.73259481  0.13796847  1.0
  Cl  Cl4  1  0.15857333  0.05966535  0.36271597  1.0
  Cl  Cl5  1  0.96658884  0.04967748  0.21899263  1.0
  Cl  Cl6  1  0.47417628  0.54593279  0.58749772  1.0
  Cl  Cl7  1  0.93579923  0.17927029  0.52270293  1.0
