# generated using pymatgen
data_NaCl
_symmetry_space_group_name_H-M   'P 1'
_cell_length_a   6.59789309
_cell_length_b   6.59789309
_cell_length_c   6.40787953
_cell_angle_alpha   90.00000000
_cell_angle_beta   90.00000000
_cell_angle_gamma   90.00000000
_symmetry_Int_Tables_number   1
_chemical_formula_structural   NaCl
_chemical_formula_sum   'Na4 Cl4'
_cell_volume   278.94904988
_cell_formula_units_Z   4
loop_
 _symmetry_equiv_pos_site_id
 _symmetry_equiv_pos_as_xyz
  1  'x, y, z'
loop_
 _atom_site_type_symbol
 _atom_site_label
 _atom_site_symmetry_multiplicity
 _atom_site_fract_x
 _atom_site_fract_y
 _atom_site_fract_z
 _atom_site_occupancy
  Na  Na0  1  0.54287194  0.79060973  0.12983724  1.0
  Na  Na1  1  0.59535839  0.17635932  0.84394670  1.0
  Na  Na2  1  0.16202465  0.21487905  0.81204974  1.0
  Na  Na3  1  0.87032112  0.86140964  0.08650400  1.0
  Cl  Cl4  1  0.24229649  0.02709326  0.34730868  1.0
  Cl  Cl5  1  0.40945542  0.01868237  0.22801980  1.0
  Cl  Cl6  1  0.63093482  0.44609350  0.58880118  1.0
  Cl  Cl7  1  0.37867194  0.64096812  0.77793168  1.0
