# generated using pymatgen
data_NaCl
_symmetry_space_group_name_H-M   'P 1'
_cell_length_a   5.08229296
_cell_length_b   11.17289239
_cell_length_c   7.12156296
_cell_angle_alpha   90.00000000
_cell_angle_beta   79.10316301
_cell_angle_gamma   90.00000000
_symmetry_Int_Tables_number   1
_chemical_formula_structural   NaCl
_chemical_formula_sum   'Na4 Cl4'
_cell_volume   397.09870774
_cell_formula_units_Z   4
loop_
 _symmetry_equiv_pos_site_id
 _symmetry_equiv_pos_as_xyz
  1  'x, y, z'
loop_
 _atom_site_type_symbol
 _atom_site_label
 _atom_site_symmetry_multiplicity
 _atom_site_fract_x
 _atom_site_fract_y
 _atom_site_fract_z
 _atom_site_occupancy
  Na  Na0  1  0.92005215  0.00000000  0.10580331  1.0
  Na  Na1  1  0.18922769  0.00000000  0.37542992  1.0
  Na  Na2  1  0.74324091  0.81218575  0.53179137  1.0
  Na  Na3  1  0.39767362  0.19721504  0.77469326  1.0
  Cl  Cl4  1  0.48620161  0.00000000  0.29403140  1.0
  Cl  Cl5  1  0.63277480  0.00000000  0.76438297  1.0
  Cl  Cl6  1  0.09519617  0.50000000  0.87202401  1.0
  Cl  Cl7  1  0.47773419  0.50000000  0.36855474  1.0
