# generated using pymatgen
data_NaCl
_symmetry_space_group_name_H-M   'P 1'
_cell_length_a   6.88022655
_cell_length_b   4.44888497
_cell_length_c   13.21116910
_cell_angle_alpha   90.00000000
_cell_angle_beta   68.60340254
_cell_angle_gamma   90.00000000
_symmetry_Int_Tables_number   1
_chemical_formula_structural   NaCl
_chemical_formula_sum   'Na4 Cl4'
_cell_volume   376.51387990
_cell_formula_units_Z   4
loop_
 _symmetry_equiv_pos_site_id
 _symmetry_equiv_pos_as_xyz
  1  'x, y, z'
loop_
 _atom_site_type_symbol
 _atom_site_label
 _atom_site_symmetry_multiplicity
 _atom_site_fract_x
 _atom_site_fract_y
 _atom_site_fract_z
 _atom_site_occupancy
  Na  Na0  1  0.44647713  0.76125633  0.15197085  1.0
  Na  Na1  1  0.57091862  0.43192953  0.87312174  1.0
  Na  Na2  1  0.65835438  0.68016436  0.45117601  1.0
  Na  Na3  1  0.90297560  0.27143832  0.03642514  1.0
  Cl  Cl4  1  0.09518440  0.46784610  0.14457393  1.0
  Cl  Cl5  1  0.22258696  0.39488338  0.15581574  1.0
  Cl  Cl6  1  0.32302007  0.94603404  0.91352413  1.0
  Cl  Cl7  1  0.65159438  0.51590828  0.70365886  1.0
