# generated using pymatgen
data_NaCl
_symmetry_space_group_name_H-M   'P 1'
_cell_length_a   5.56932457
_cell_length_b   8.46905790
_cell_length_c   10.86852817
_cell_angle_alpha   90.00000000
_cell_angle_beta   52.63212235
_cell_angle_gamma   90.00000000
_symmetry_Int_Tables_number   1
_chemical_formula_structural   NaCl
_chemical_formula_sum   'Na4 Cl4'
_cell_volume   407.41934205
_cell_formula_units_Z   4
loop_
 _symmetry_equiv_pos_site_id
 _symmetry_equiv_pos_as_xyz
  1  'x, y, z'
loop_
 _atom_site_type_symbol
 _atom_site_label
 _atom_site_symmetry_multiplicity
 _atom_site_fract_x
 _atom_site_fract_y
 _atom_site_fract_z
 _atom_site_occupancy
  Na  Na0  1  0.57709919  0.56228561  0.23090679  1.0
  Na  Na1  1  0.45525304  0.14103912  0.74400884  1.0
  Na  Na2  1  0.27899731  0.85626623  0.48577736  1.0
  Na  Na3  1  0.14697114  0.15833621  0.37122798  1.0
  Cl  Cl4  1  0.05360392  0.29795722  0.11989744  1.0
  Cl  Cl5  1  0.60115772  0.01627033  0.27250257  1.0
  Cl  Cl6  1  0.47046684  0.56120338  0.85797118  1.0
  Cl  Cl7  1  0.44347000  0.84355329  0.01979069  1.0
