# generated using pymatgen
data_NaCl
_symmetry_space_group_name_H-M   'P 1'
_cell_length_a   5.93421835
_cell_length_b   5.93421835
_cell_length_c   5.93421835
_cell_angle_alpha   90.00000000
_cell_angle_beta   90.00000000
_cell_angle_gamma   90.00000000
_symmetry_Int_Tables_number   1
_chemical_formula_structural   NaCl
_chemical_formula_sum   'Na4 Cl4'
_cell_volume   208.97318721
_cell_formula_units_Z   4
loop_
 _symmetry_equiv_pos_site_id
 _symmetry_equiv_pos_as_xyz
  1  'x, y, z'
loop_
 _atom_site_type_symbol
 _atom_site_label
 _atom_site_symmetry_multiplicity
 _atom_site_fract_x
 _atom_site_fract_y
 _atom_site_fract_z
 _atom_site_occupancy
  Na  Na0  1  0.27639014  0.27639014  0.27639014  1.0
  Na  Na1  1  0.93141772  0.43141772  0.06858228  1.0
  Na  Na2  1  0.37888764  0.12111236  0.87888764  1.0
  Na  Na3  1  0.62371470  0.37628530  0.87628530  1.0
  Cl  Cl4  1  0.04099553  0.04099553  0.04099553  1.0
  Cl  Cl5  1  0.77469410  0.27469410  0.22530590  1.0
  Cl  Cl6  1  0.24934857  0.25065143  0.74934857  1.0
  Cl  Cl7  1  0.87960548  0.12039452  0.62039452  1.0
