# generated using pymatgen
data_NaCl
_symmetry_space_group_name_H-M   'P 1'
_cell_length_a   6.62121281
_cell_length_b   6.62121281
_cell_length_c   6.76811430
_cell_angle_alpha   90.00000000
_cell_angle_beta   90.00000000
_cell_angle_gamma   90.00000000
_symmetry_Int_Tables_number   1
_chemical_formula_structural   NaCl
_chemical_formula_sum   'Na4 Cl4'
_cell_volume   296.71723799
_cell_formula_units_Z   4
loop_
 _symmetry_equiv_pos_site_id
 _symmetry_equiv_pos_as_xyz
  1  'x, y, z'
loop_
 _atom_site_type_symbol
 _atom_site_label
 _atom_site_symmetry_multiplicity
 _atom_site_fract_x
 _atom_site_fract_y
 _atom_site_fract_z
 _atom_site_occupancy
  Na  Na0  1  0.50000000  0.72966872  0.00000000  1.0
  Na  Na1  1  0.50000000  0.25850491  0.50000000  1.0
  Na  Na2  1  0.17658660  0.50000000  0.75000000  1.0
  Na  Na3  1  0.94031885  0.50000000  0.25000000  1.0
  Cl  Cl4  1  0.09096335  0.09096335  0.62500000  1.0
  Cl  Cl5  1  0.43501268  0.43501268  0.12500000  1.0
  Cl  Cl6  1  0.44991501  0.55008499  0.37500000  1.0
  Cl  Cl7  1  0.54464295  0.45535705  0.87500000  1.0
