# generated using pymatgen
data_NaCl
_symmetry_space_group_name_H-M   'P 1'
_cell_length_a   2.91704411
_cell_length_b   15.55372880
_cell_length_c   4.55706906
_cell_angle_alpha   90.00000000
_cell_angle_beta   90.00000000
_cell_angle_gamma   90.00000000
_symmetry_Int_Tables_number   1
_chemical_formula_structural   NaCl
_chemical_formula_sum   'Na4 Cl4'
_cell_volume   206.75838379
_cell_formula_units_Z   4
loop_
 _symmetry_equiv_pos_site_id
 _symmetry_equiv_pos_as_xyz
  1  'x, y, z'
loop_
 _atom_site_type_symbol
 _atom_site_label
 _atom_site_symmetry_multiplicity
 _atom_site_fract_x
 _atom_site_fract_y
 _atom_site_fract_z
 _atom_site_occupancy
  Na  Na0  1  0.47932714  0.82448751  0.16617519  1.0
  Na  Na1  1  0.56266118  0.27637156  0.76916786  1.0
  Na  Na2  1  0.08732062  0.71988892  0.62569484  1.0
  Na  Na3  1  0.47284102  0.17028227  0.41368310  1.0
  Cl  Cl4  1  0.13443977  0.31735156  0.20033445  1.0
  Cl  Cl5  1  0.66926622  0.01833318  0.18348909  1.0
  Cl  Cl6  1  0.08405165  0.41553577  0.96905060  1.0
  Cl  Cl7  1  0.17658866  0.56640537  0.97606970  1.0
