# generated using pymatgen
data_NaCl
_symmetry_space_group_name_H-M   'P 1'
_cell_length_a   5.08415489
_cell_length_b   6.87870123
_cell_length_c   8.35011458
_cell_angle_alpha   90.00000000
_cell_angle_beta   90.00000000
_cell_angle_gamma   90.00000000
_symmetry_Int_Tables_number   1
_chemical_formula_structural   NaCl
_chemical_formula_sum   'Na4 Cl4'
_cell_volume   292.02340097
_cell_formula_units_Z   4
loop_
 _symmetry_equiv_pos_site_id
 _symmetry_equiv_pos_as_xyz
  1  'x, y, z'
loop_
 _atom_site_type_symbol
 _atom_site_label
 _atom_site_symmetry_multiplicity
 _atom_site_fract_x
 _atom_site_fract_y
 _atom_site_fract_z
 _atom_site_occupancy
  Na  Na0  1  0.50000000  0.73351946  0.39472993  1.0
  Na  Na1  1  0.50000000  0.18235939  0.77139677  1.0
  Na  Na2  1  0.50000000  0.63128135  0.63786733  1.0
  Na  Na3  1  0.50000000  0.27453064  0.21628782  1.0
  Cl  Cl4  1  0.13178794  0.40704459  0.22038314  1.0
  Cl  Cl5  1  0.13759805  0.14804365  0.15302684  1.0
  Cl  Cl6  1  0.16514328  0.06844277  0.39894256  1.0
  Cl  Cl7  1  0.55923786  0.12938138  0.29746428  1.0
