# generated using pymatgen
data_NaCl
_symmetry_space_group_name_H-M   'P 1'
_cell_length_a   6.31753289
_cell_length_b   4.58625650
_cell_length_c   9.25027493
_cell_angle_alpha   90.00000000
_cell_angle_beta   57.94797473
_cell_angle_gamma   90.00000000
_symmetry_Int_Tables_number   1
_chemical_formula_structural   NaCl
_chemical_formula_sum   'Na4 Cl4'
_cell_volume   227.16128313
_cell_formula_units_Z   4
loop_
 _symmetry_equiv_pos_site_id
 _symmetry_equiv_pos_as_xyz
  1  'x, y, z'
loop_
 _atom_site_type_symbol
 _atom_site_label
 _atom_site_symmetry_multiplicity
 _atom_site_fract_x
 _atom_site_fract_y
 _atom_site_fract_z
 _atom_site_occupancy
  Na  Na0  1  0.38640630  0.67683529  0.37992477  1.0
  Na  Na1  1  0.41954332  0.61704830  0.76804626  1.0
  Na  Na2  1  0.50467841  0.83043369  0.49174261  1.0
  Na  Na3  1  0.07138012  0.07852992  0.38119413  1.0
  Cl  Cl4  1  0.23193757  0.32290734  0.18077635  1.0
  Cl  Cl5  1  0.60951130  0.09824090  0.32316583  1.0
  Cl  Cl6  1  0.56071464  0.45614367  0.98256254  1.0
  Cl  Cl7  1  0.31778415  0.86406713  0.07213342  1.0
