# generated using pymatgen
data_NaCl
_symmetry_space_group_name_H-M   'P 1'
_cell_length_a   7.60622745
_cell_length_b   4.44159271
_cell_length_c   8.77749177
_cell_angle_alpha   90.00000000
_cell_angle_beta   90.00000000
_cell_angle_gamma   90.00000000
_symmetry_Int_Tables_number   1
_chemical_formula_structural   NaCl
_chemical_formula_sum   'Na4 Cl4'
_cell_volume   296.53671391
_cell_formula_units_Z   4
loop_
 _symmetry_equiv_pos_site_id
 _symmetry_equiv_pos_as_xyz
  1  'x, y, z'
loop_
 _atom_site_type_symbol
 _atom_site_label
 _atom_site_symmetry_multiplicity
 _atom_site_fract_x
 _atom_site_fract_y
 _atom_site_fract_z
 _atom_site_occupancy
  Na  Na0  1  0.50000000  0.66625764  0.10919414  1.0
  Na  Na1  1  0.50000000  0.13277551  0.87002754  1.0
  Na  Na2  1  0.50000000  0.67966845  0.48677934  1.0
  Na  Na3  1  0.50000000  0.13665803  0.49905370  1.0
  Cl  Cl4  1  0.00000000  0.20762563  0.39940392  1.0
  Cl  Cl5  1  0.00000000  0.10439849  0.17917732  1.0
  Cl  Cl6  1  0.50000000  0.93849186  0.99983836  1.0
  Cl  Cl7  1  0.50000000  0.44634276  0.02967433  1.0
