# generated using pymatgen
data_NaCl
_symmetry_space_group_name_H-M   'P 1'
_cell_length_a   6.48173306
_cell_length_b   6.48173306
_cell_length_c   7.35165620
_cell_angle_alpha   90.00000000
_cell_angle_beta   90.00000000
_cell_angle_gamma   90.00000000
_symmetry_Int_Tables_number   1
_chemical_formula_structural   NaCl
_chemical_formula_sum   'Na4 Cl4'
_cell_volume   308.86412814
_cell_formula_units_Z   4
loop_
 _symmetry_equiv_pos_site_id
 _symmetry_equiv_pos_as_xyz
  1  'x, y, z'
loop_
 _atom_site_type_symbol
 _atom_site_label
 _atom_site_symmetry_multiplicity
 _atom_site_fract_x
 _atom_site_fract_y
 _atom_site_fract_z
 _atom_site_occupancy
  Na  Na0  1  0.30632098  0.54967557  0.38699929  1.0
  Na  Na1  1  0.44956699  0.14771676  0.61430784  1.0
  Na  Na2  1  0.04829146  0.70221258  0.22970118  1.0
  Na  Na3  1  0.91220815  0.86162249  0.19895830  1.0
  Cl  Cl4  1  0.00000000  0.00000000  0.17528817  1.0
  Cl  Cl5  1  0.00000000  0.00000000  0.73964366  1.0
  Cl  Cl6  1  0.00000000  0.50000000  0.95480187  1.0
  Cl  Cl7  1  0.50000000  0.00000000  0.85521182  1.0
