# generated using pymatgen
data_NaCl
_symmetry_space_group_name_H-M   'P 1'
_cell_length_a   6.94021885
_cell_length_b   6.94021885
_cell_length_c   5.16608250
_cell_angle_alpha   90.00000000
_cell_angle_beta   90.00000000
_cell_angle_gamma   90.00000000
_symmetry_Int_Tables_number   1
_chemical_formula_structural   NaCl
_chemical_formula_sum   'Na4 Cl4'
_cell_volume   248.83282403
_cell_formula_units_Z   4
loop_
 _symmetry_equiv_pos_site_id
 _symmetry_equiv_pos_as_xyz
  1  'x, y, z'
loop_
 _atom_site_type_symbol
 _atom_site_label
 _atom_site_symmetry_multiplicity
 _atom_site_fract_x
 _atom_site_fract_y
 _atom_site_fract_z
 _atom_site_occupancy
  Na  Na0  1  0.51872455  0.63088410  0.36132973  1.0
  Na  Na1  1  0.29632311  0.22320488  0.66368517  1.0
  Na  Na2  1  0.35205281  0.59890351  0.72922545  1.0
  Na  Na3  1  0.88973346  0.15291204  0.74535151  1.0
  Cl  Cl4  1  0.20990960  0.13717373  0.23646781  1.0
  Cl  Cl5  1  0.36223489  0.06244499  0.39180271  1.0
  Cl  Cl6  1  0.52293011  0.00377859  0.42359928  1.0
  Cl  Cl7  1  0.09636109  0.76331746  0.16499650  1.0
