# generated using pymatgen
data_NaCl
_symmetry_space_group_name_H-M   'P 1'
_cell_length_a   4.87205920
_cell_length_b   10.81185762
_cell_length_c   6.13222143
_cell_angle_alpha   90.00000000
_cell_angle_beta   56.92765831
_cell_angle_gamma   90.00000000
_symmetry_Int_Tables_number   1
_chemical_formula_structural   NaCl
_chemical_formula_sum   'Na4 Cl4'
_cell_volume   270.68582677
_cell_formula_units_Z   4
loop_
 _symmetry_equiv_pos_site_id
 _symmetry_equiv_pos_as_xyz
  1  'x, y, z'
loop_
 _atom_site_type_symbol
 _atom_site_label
 _atom_site_symmetry_multiplicity
 _atom_site_fract_x
 _atom_site_fract_y
 _atom_site_fract_z
 _atom_site_occupancy
  Na  Na0  1  0.67048067  0.68604004  0.38626306  1.0
  Na  Na1  1  0.32782791  0.27981473  0.77720486  1.0
  Na  Na2  1  0.31030848  0.65947987  0.53389050  1.0
  Na  Na3  1  0.12100138  0.14161865  0.48288545  1.0
  Cl  Cl4  1  0.22650198  0.10078191  0.18681867  1.0
  Cl  Cl5  1  0.56755844  0.07900079  0.22905649  1.0
  Cl  Cl6  1  0.60214729  0.94857592  0.08628137  1.0
  Cl  Cl7  1  0.36901121  0.86193952  0.91474887  1.0
