# generated using pymatgen
data_NaCl
_symmetry_space_group_name_H-M   'P 1'
_cell_length_a   5.36285593
_cell_length_b   7.86159302
_cell_length_c   5.26679785
_cell_angle_alpha   90.00000000
_cell_angle_beta   90.00000000
_cell_angle_gamma   90.00000000
_symmetry_Int_Tables_number   1
_chemical_formula_structural   NaCl
_chemical_formula_sum   'Na4 Cl4'
_cell_volume   222.05130870
_cell_formula_units_Z   4
loop_
 _symmetry_equiv_pos_site_id
 _symmetry_equiv_pos_as_xyz
  1  'x, y, z'
loop_
 _atom_site_type_symbol
 _atom_site_label
 _atom_site_symmetry_multiplicity
 _atom_site_fract_x
 _atom_site_fract_y
 _atom_site_fract_z
 _atom_site_occupancy
  Na  Na0  1  0.00000000  0.50476829  0.45119023  1.0
  Na  Na1  1  0.00000000  0.06236693  0.59720811  1.0
  Na  Na2  1  0.50000000  0.38117732  0.28192183  1.0
  Na  Na3  1  0.50000000  0.58019749  0.18964179  1.0
  Cl  Cl4  1  0.00000000  0.00000000  0.20848705  1.0
  Cl  Cl5  1  0.50000000  0.50000000  0.59663744  1.0
  Cl  Cl6  1  0.00000000  0.00000000  0.93419843  1.0
  Cl  Cl7  1  0.50000000  0.50000000  0.86167581  1.0
