# generated using pymatgen
data_NaCl
_symmetry_space_group_name_H-M   'P 1'
_cell_length_a   4.09355743
_cell_length_b   5.95455963
_cell_length_c   6.99465803
_cell_angle_alpha   90.00000000
_cell_angle_beta   90.00000000
_cell_angle_gamma   90.00000000
_symmetry_Int_Tables_number   1
_chemical_formula_structural   NaCl
_chemical_formula_sum   'Na4 Cl4'
_cell_volume   170.49711042
_cell_formula_units_Z   4
loop_
 _symmetry_equiv_pos_site_id
 _symmetry_equiv_pos_as_xyz
  1  'x, y, z'
loop_
 _atom_site_type_symbol
 _atom_site_label
 _atom_site_symmetry_multiplicity
 _atom_site_fract_x
 _atom_site_fract_y
 _atom_site_fract_z
 _atom_site_occupancy
  Na  Na0  1  0.51870682  0.72887800  0.25303465  1.0
  Na  Na1  1  0.09339682  0.15834199  0.77869935  1.0
  Na  Na2  1  0.39115631  0.17709106  0.94352237  1.0
  Na  Na3  1  0.68350141  0.59461309  0.03877543  1.0
  Cl  Cl4  1  0.18443071  0.21610825  0.28553427  1.0
  Cl  Cl5  1  0.98233598  0.03581582  0.23380827  1.0
  Cl  Cl6  1  0.99811621  0.36179356  0.51713146  1.0
  Cl  Cl7  1  0.82605807  0.46939207  0.55158734  1.0
