# generated using pymatgen
data_NaCl
_symmetry_space_group_name_H-M   'P 1'
_cell_length_a   7.04960232
_cell_length_b   9.57468930
_cell_length_c   5.39154484
_cell_angle_alpha   90.00000000
_cell_angle_beta   90.00000000
_cell_angle_gamma   90.00000000
_symmetry_Int_Tables_number   1
_chemical_formula_structural   NaCl
_chemical_formula_sum   'Na4 Cl4'
_cell_volume   363.91715598
_cell_formula_units_Z   4
loop_
 _symmetry_equiv_pos_site_id
 _symmetry_equiv_pos_as_xyz
  1  'x, y, z'
loop_
 _atom_site_type_symbol
 _atom_site_label
 _atom_site_symmetry_multiplicity
 _atom_site_fract_x
 _atom_site_fract_y
 _atom_site_fract_z
 _atom_site_occupancy
  Na  Na0  1  0.50000000  0.71895313  0.21002480  1.0
  Na  Na1  1  0.50000000  0.18928135  0.75524801  1.0
  Na  Na2  1  0.50000000  0.68016595  0.58261451  1.0
  Na  Na3  1  0.50000000  0.27367729  0.38431384  1.0
  Cl  Cl4  1  0.02542423  0.15641966  0.27044745  1.0
  Cl  Cl5  1  0.48605961  0.09759627  0.18963948  1.0
  Cl  Cl6  1  0.49372951  0.79002099  0.38995185  1.0
  Cl  Cl7  1  0.58939634  0.44488947  0.54536300  1.0
