# generated using pymatgen
data_NaCl
_symmetry_space_group_name_H-M   'P 1'
_cell_length_a   6.67614360
_cell_length_b   6.67614360
_cell_length_c   5.36843738
_cell_angle_alpha   90.00000000
_cell_angle_beta   90.00000000
_cell_angle_gamma   90.00000000
_symmetry_Int_Tables_number   1
_chemical_formula_structural   NaCl
_chemical_formula_sum   'Na4 Cl4'
_cell_volume   239.27605002
_cell_formula_units_Z   4
loop_
 _symmetry_equiv_pos_site_id
 _symmetry_equiv_pos_as_xyz
  1  'x, y, z'
loop_
 _atom_site_type_symbol
 _atom_site_label
 _atom_site_symmetry_multiplicity
 _atom_site_fract_x
 _atom_site_fract_y
 _atom_site_fract_z
 _atom_site_occupancy
  Na  Na0  1  0.94443946  0.46398685  0.16538364  1.0
  Na  Na1  1  0.49232079  0.23475115  0.01544407  1.0
  Na  Na2  1  0.35040735  0.70570911  0.94835841  1.0
  Na  Na3  1  0.25882885  0.11883357  0.48943470  1.0
  Cl  Cl4  1  0.59425638  0.54457375  0.00347641  1.0
  Cl  Cl5  1  0.78420306  0.32981413  0.19311775  1.0
  Cl  Cl6  1  0.09521942  0.08558650  0.76578733  1.0
  Cl  Cl7  1  0.58794887  0.42389192  0.13540202  1.0
