# generated using pymatgen
data_NaCl
_symmetry_space_group_name_H-M   'P 1'
_cell_length_a   4.01065585
_cell_length_b   13.28120410
_cell_length_c   7.93068823
_cell_angle_alpha   90.00000000
_cell_angle_beta   45.75891006
_cell_angle_gamma   90.00000000
_symmetry_Int_Tables_number   1
_chemical_formula_structural   NaCl
_chemical_formula_sum   'Na4 Cl4'
_cell_volume   302.63951778
_cell_formula_units_Z   4
loop_
 _symmetry_equiv_pos_site_id
 _symmetry_equiv_pos_as_xyz
  1  'x, y, z'
loop_
 _atom_site_type_symbol
 _atom_site_label
 _atom_site_symmetry_multiplicity
 _atom_site_fract_x
 _atom_site_fract_y
 _atom_site_fract_z
 _atom_site_occupancy
  Na  Na0  1  0.00000000  0.91904279  0.00000000  1.0
  Na  Na1  1  0.50000000  0.27066939  0.00000000  1.0
  Na  Na2  1  0.00000000  0.47664058  0.00000000  1.0
  Na  Na3  1  0.50000000  0.88442497  0.00000000  1.0
  Cl  Cl4  1  0.53276221  0.32331538  0.72159513  1.0
  Cl  Cl5  1  0.93567501  0.62735614  0.39511843  1.0
  Cl  Cl6  1  0.50097483  0.20685786  0.48745985  1.0
  Cl  Cl7  1  0.77156991  0.77435803  0.69825409  1.0
