# generated using pymatgen
data_NaCl
_symmetry_space_group_name_H-M   'P 1'
_cell_length_a   5.49356376
_cell_length_b   5.49356376
_cell_length_c   5.49356376
_cell_angle_alpha   90.00000000
_cell_angle_beta   90.00000000
_cell_angle_gamma   90.00000000
_symmetry_Int_Tables_number   1
_chemical_formula_structural   NaCl
_chemical_formula_sum   'Na4 Cl4'
_cell_volume   165.79159447
_cell_formula_units_Z   4
loop_
 _symmetry_equiv_pos_site_id
 _symmetry_equiv_pos_as_xyz
  1  'x, y, z'
loop_
 _atom_site_type_symbol
 _atom_site_label
 _atom_site_symmetry_multiplicity
 _atom_site_fract_x
 _atom_site_fract_y
 _atom_site_fract_z
 _atom_site_occupancy
  Na  Na0  1  0.83984677  0.83984677  0.83984677  1.0
  Na  Na1  1  0.89028853  0.39028853  0.10971147  1.0
  Na  Na2  1  0.69472162  0.80527838  0.19472162  1.0
  Na  Na3  1  0.53816077  0.46183923  0.96183923  1.0
  Cl  Cl4  1  0.72078250  0.72078250  0.72078250  1.0
  Cl  Cl5  1  0.01735420  0.51735420  0.98264580  1.0
  Cl  Cl6  1  0.47720293  0.02279707  0.97720293  1.0
  Cl  Cl7  1  0.19114992  0.80885008  0.30885008  1.0
