# generated using pymatgen
data_NaCl
_symmetry_space_group_name_H-M   'P 1'
_cell_length_a   7.89122574
_cell_length_b   7.89122574
_cell_length_c   4.95654675
_cell_angle_alpha   90.00000000
_cell_angle_beta   90.00000000
_cell_angle_gamma   90.00000000
_symmetry_Int_Tables_number   1
_chemical_formula_structural   NaCl
_chemical_formula_sum   'Na4 Cl4'
_cell_volume   308.65132179
_cell_formula_units_Z   4
loop_
 _symmetry_equiv_pos_site_id
 _symmetry_equiv_pos_as_xyz
  1  'x, y, z'
loop_
 _atom_site_type_symbol
 _atom_site_label
 _atom_site_symmetry_multiplicity
 _atom_site_fract_x
 _atom_site_fract_y
 _atom_site_fract_z
 _atom_site_occupancy
  Na  Na0  1  0.84919996  0.57080563  0.32589640  1.0
  Na  Na1  1  0.50588280  0.03176474  0.28367230  1.0
  Na  Na2  1  0.60790267  0.27721081  0.11814085  1.0
  Na  Na3  1  0.32354689  0.99965091  0.57786702  1.0
  Cl  Cl4  1  0.68725952  0.55309708  0.42214212  1.0
  Cl  Cl5  1  0.60370060  0.02582073  0.10770219  1.0
  Cl  Cl6  1  0.22114439  0.20415443  0.77633073  1.0
  Cl  Cl7  1  0.60570904  0.31887464  0.40643756  1.0
