# generated using pymatgen
data_NaCl
_symmetry_space_group_name_H-M   'P 1'
_cell_length_a   6.56241570
_cell_length_b   6.56241570
_cell_length_c   6.71305978
_cell_angle_alpha   90.00000000
_cell_angle_beta   90.00000000
_cell_angle_gamma   90.00000000
_symmetry_Int_Tables_number   1
_chemical_formula_structural   NaCl
_chemical_formula_sum   'Na4 Cl4'
_cell_volume   289.09993213
_cell_formula_units_Z   4
loop_
 _symmetry_equiv_pos_site_id
 _symmetry_equiv_pos_as_xyz
  1  'x, y, z'
loop_
 _atom_site_type_symbol
 _atom_site_label
 _atom_site_symmetry_multiplicity
 _atom_site_fract_x
 _atom_site_fract_y
 _atom_site_fract_z
 _atom_site_occupancy
  Na  Na0  1  0.00000000  0.00000000  0.27009739  1.0
  Na  Na1  1  0.00000000  0.00000000  0.49747396  1.0
  Na  Na2  1  0.50000000  0.50000000  0.69630183  1.0
  Na  Na3  1  0.50000000  0.50000000  0.33930274  1.0
  Cl  Cl4  1  0.71462068  0.50000000  0.47946976  1.0
  Cl  Cl5  1  0.87578525  0.50000000  0.70494941  1.0
  Cl  Cl6  1  0.50000000  0.68466535  0.46313689  1.0
  Cl  Cl7  1  0.50000000  0.78016407  0.67772917  1.0
