# generated using pymatgen
data_NaCl
_symmetry_space_group_name_H-M   'P 1'
_cell_length_a   4.29257026
_cell_length_b   4.29257026
_cell_length_c   6.31268209
_cell_angle_alpha   90.00000000
_cell_angle_beta   90.00000000
_cell_angle_gamma   90.00000000
_symmetry_Int_Tables_number   1
_chemical_formula_structural   NaCl
_chemical_formula_sum   'Na4 Cl4'
_cell_volume   116.31848667
_cell_formula_units_Z   4
loop_
 _symmetry_equiv_pos_site_id
 _symmetry_equiv_pos_as_xyz
  1  'x, y, z'
loop_
 _atom_site_type_symbol
 _atom_site_label
 _atom_site_symmetry_multiplicity
 _atom_site_fract_x
 _atom_site_fract_y
 _atom_site_fract_z
 _atom_site_occupancy
  Na  Na0  1  0.00000000  0.47263531  0.00000000  1.0
  Na  Na1  1  0.00000000  0.28937026  0.50000000  1.0
  Na  Na2  1  0.64999206  0.00000000  0.25000000  1.0
  Na  Na3  1  0.37174623  0.00000000  0.75000000  1.0
  Cl  Cl4  1  0.50000000  0.44099514  0.00000000  1.0
  Cl  Cl5  1  0.50000000  0.30668358  0.50000000  1.0
  Cl  Cl6  1  0.15356309  0.50000000  0.25000000  1.0
  Cl  Cl7  1  0.61774275  0.50000000  0.75000000  1.0
