# generated using pymatgen
data_NaCl
_symmetry_space_group_name_H-M   'P 1'
_cell_length_a   5.53736058
_cell_length_b   2.82500399
_cell_length_c   8.26332078
_cell_angle_alpha   90.00000000
_cell_angle_beta   90.00000000
_cell_angle_gamma   90.00000000
_symmetry_Int_Tables_number   1
_chemical_formula_structural   NaCl
_chemical_formula_sum   'Na4 Cl4'
_cell_volume   129.26367013
_cell_formula_units_Z   4
loop_
 _symmetry_equiv_pos_site_id
 _symmetry_equiv_pos_as_xyz
  1  'x, y, z'
loop_
 _atom_site_type_symbol
 _atom_site_label
 _atom_site_symmetry_multiplicity
 _atom_site_fract_x
 _atom_site_fract_y
 _atom_site_fract_z
 _atom_site_occupancy
  Na  Na0  1  0.85805065  0.00132087  0.47971257  1.0
  Na  Na1  1  0.50116272  0.20853306  0.15681391  1.0
  Na  Na2  1  0.75258315  0.89809211  0.92648565  1.0
  Na  Na3  1  0.40365731  0.67438598  0.15374638  1.0
  Cl  Cl4  1  0.63934841  0.41916516  0.37626500  1.0
  Cl  Cl5  1  0.63926082  0.56878546  0.02422747  1.0
  Cl  Cl6  1  0.66464512  0.65648450  0.51466585  1.0
  Cl  Cl7  1  0.77728704  0.78985614  0.18264270  1.0
