# generated using pymatgen
data_NaCl
_symmetry_space_group_name_H-M   'P 1'
_cell_length_a   5.82156012
_cell_length_b   5.82156012
_cell_length_c   11.61046028
_cell_angle_alpha   90.00000000
_cell_angle_beta   90.00000000
_cell_angle_gamma   90.00000000
_symmetry_Int_Tables_number   1
_chemical_formula_structural   NaCl
_chemical_formula_sum   'Na4 Cl4'
_cell_volume   393.48502665
_cell_formula_units_Z   4
loop_
 _symmetry_equiv_pos_site_id
 _symmetry_equiv_pos_as_xyz
  1  'x, y, z'
loop_
 _atom_site_type_symbol
 _atom_site_label
 _atom_site_symmetry_multiplicity
 _atom_site_fract_x
 _atom_site_fract_y
 _atom_site_fract_z
 _atom_site_occupancy
  Na  Na0  1  0.87831796  0.55669616  0.34862356  1.0
  Na  Na1  1  0.46782531  0.12223821  0.75988598  1.0
  Na  Na2  1  0.36078721  0.40710467  0.16188164  1.0
  Na  Na3  1  0.18178237  0.18802248  0.50579214  1.0
  Cl  Cl4  1  0.78764484  0.48835638  0.24130324  1.0
  Cl  Cl5  1  0.55465316  0.10965662  0.32617156  1.0
  Cl  Cl6  1  0.02947379  0.60171199  0.77351288  1.0
  Cl  Cl7  1  0.43572195  0.34536457  0.41440040  1.0
