# generated using pymatgen
data_NaCl
_symmetry_space_group_name_H-M   'P 1'
_cell_length_a   6.43592904
_cell_length_b   6.43592904
_cell_length_c   6.43592904
_cell_angle_alpha   90.00000000
_cell_angle_beta   90.00000000
_cell_angle_gamma   90.00000000
_symmetry_Int_Tables_number   1
_chemical_formula_structural   NaCl
_chemical_formula_sum   'Na4 Cl4'
_cell_volume   266.58379202
_cell_formula_units_Z   4
loop_
 _symmetry_equiv_pos_site_id
 _symmetry_equiv_pos_as_xyz
  1  'x, y, z'
loop_
 _atom_site_type_symbol
 _atom_site_label
 _atom_site_symmetry_multiplicity
 _atom_site_fract_x
 _atom_site_fract_y
 _atom_site_fract_z
 _atom_site_occupancy
  Na  Na0  1  0.72933233  0.72933233  0.72933233  1.0
  Na  Na1  1  0.88076102  0.38076102  0.11923898  1.0
  Na  Na2  1  0.54409460  0.95590540  0.04409460  1.0
  Na  Na3  1  0.76889498  0.23110502  0.73110502  1.0
  Cl  Cl4  1  0.88558998  0.88558998  0.88558998  1.0
  Cl  Cl5  1  0.49647779  0.99647779  0.50352221  1.0
  Cl  Cl6  1  0.92423342  0.57576658  0.42423342  1.0
  Cl  Cl7  1  0.03414740  0.96585260  0.46585260  1.0
