# generated using pymatgen
data_NaCl
_symmetry_space_group_name_H-M   'P 1'
_cell_length_a   4.95804776
_cell_length_b   15.36305518
_cell_length_c   9.46422329
_cell_angle_alpha   55.32510690
_cell_angle_beta   148.28528807
_cell_angle_gamma   136.32759983
_symmetry_Int_Tables_number   1
_chemical_formula_structural   NaCl
_chemical_formula_sum   'Na4 Cl4'
_cell_volume   259.54639181
_cell_formula_units_Z   4
loop_
 _symmetry_equiv_pos_site_id
 _symmetry_equiv_pos_as_xyz
  1  'x, y, z'
loop_
 _atom_site_type_symbol
 _atom_site_label
 _atom_site_symmetry_multiplicity
 _atom_site_fract_x
 _atom_site_fract_y
 _atom_site_fract_z
 _atom_site_occupancy
  Na  Na0  1  0.00000000  0.00000000  0.00000000  1.0
  Na  Na1  1  0.50000000  0.00000000  0.50000000  1.0
  Na  Na2  1  0.42797202  0.30271939  0.92820142  1.0
  Na  Na3  1  0.79028266  0.58966911  0.38855834  1.0
  Cl  Cl4  1  0.00000000  0.00000000  0.50000000  1.0
  Cl  Cl5  1  0.50000000  0.00000000  0.00000000  1.0
  Cl  Cl6  1  0.40723024  0.79764397  0.52951069  1.0
  Cl  Cl7  1  0.44719679  0.28572546  0.78208203  1.0
