# generated using pymatgen
data_NaCl
_symmetry_space_group_name_H-M   'P 1'
_cell_length_a   7.10594527
_cell_length_b   17.11852247
_cell_length_c   2.98534732
_cell_angle_alpha   35.89221617
_cell_angle_beta   74.95521746
_cell_angle_gamma   89.61959853
_symmetry_Int_Tables_number   1
_chemical_formula_structural   NaCl
_chemical_formula_sum   'Na4 Cl4'
_cell_volume   191.84123066
_cell_formula_units_Z   4
loop_
 _symmetry_equiv_pos_site_id
 _symmetry_equiv_pos_as_xyz
  1  'x, y, z'
loop_
 _atom_site_type_symbol
 _atom_site_label
 _atom_site_symmetry_multiplicity
 _atom_site_fract_x
 _atom_site_fract_y
 _atom_site_fract_z
 _atom_site_occupancy
  Na  Na0  1  0.00000000  0.00000000  0.50000000  1.0
  Na  Na1  1  0.50000000  0.00000000  0.00000000  1.0
  Na  Na2  1  0.12796687  0.36101002  0.87313477  1.0
  Na  Na3  1  0.94222594  0.68293463  0.55006035  1.0
  Cl  Cl4  1  0.00000000  0.00000000  0.00000000  1.0
  Cl  Cl5  1  0.00000000  0.50000000  0.00000000  1.0
  Cl  Cl6  1  0.00000000  0.50000000  0.50000000  1.0
  Cl  Cl7  1  0.50000000  0.50000000  0.50000000  1.0
