# generated using pymatgen
data_NaCl
_symmetry_space_group_name_H-M   'P 1'
_cell_length_a   7.18042935
_cell_length_b   7.18042935
_cell_length_c   7.18042935
_cell_angle_alpha   90.00000000
_cell_angle_beta   90.00000000
_cell_angle_gamma   90.00000000
_symmetry_Int_Tables_number   1
_chemical_formula_structural   NaCl
_chemical_formula_sum   'Na4 Cl4'
_cell_volume   370.21263804
_cell_formula_units_Z   4
loop_
 _symmetry_equiv_pos_site_id
 _symmetry_equiv_pos_as_xyz
  1  'x, y, z'
loop_
 _atom_site_type_symbol
 _atom_site_label
 _atom_site_symmetry_multiplicity
 _atom_site_fract_x
 _atom_site_fract_y
 _atom_site_fract_z
 _atom_site_occupancy
  Na  Na0  1  0.91836494  0.91836494  0.91836494  1.0
  Na  Na1  1  0.04591257  0.54591257  0.95408743  1.0
  Na  Na2  1  0.67585741  0.82414259  0.17585741  1.0
  Na  Na3  1  0.58196815  0.41803185  0.91803185  1.0
  Cl  Cl4  1  0.60969990  0.60969990  0.60969990  1.0
  Cl  Cl5  1  0.20106460  0.70106460  0.79893540  1.0
  Cl  Cl6  1  0.43542606  0.06457394  0.93542606  1.0
  Cl  Cl7  1  0.11479070  0.88520930  0.38520930  1.0
