# generated using pymatgen
data_NaCl
_symmetry_space_group_name_H-M   'P 1'
_cell_length_a   6.15312053
_cell_length_b   25.66034413
_cell_length_c   5.49532716
_cell_angle_alpha   90.00000000
_cell_angle_beta   153.79367229
_cell_angle_gamma   90.00000000
_symmetry_Int_Tables_number   1
_chemical_formula_structural   NaCl
_chemical_formula_sum   'Na4 Cl4'
_cell_volume   383.16459898
_cell_formula_units_Z   4
loop_
 _symmetry_equiv_pos_site_id
 _symmetry_equiv_pos_as_xyz
  1  'x, y, z'
loop_
 _atom_site_type_symbol
 _atom_site_label
 _atom_site_symmetry_multiplicity
 _atom_site_fract_x
 _atom_site_fract_y
 _atom_site_fract_z
 _atom_site_occupancy
  Na  Na0  1  0.88363116  0.58846828  0.36827520  1.0
  Na  Na1  1  0.47562423  0.41122086  0.66913578  1.0
  Na  Na2  1  0.85181264  0.89416436  0.48872065  1.0
  Na  Na3  1  0.56882256  0.14917257  0.28899236  1.0
  Cl  Cl4  1  0.64986068  0.58723603  0.51907435  1.0
  Cl  Cl5  1  0.39729841  0.51000783  0.97492395  1.0
  Cl  Cl6  1  0.72610877  0.06573333  0.51406067  1.0
  Cl  Cl7  1  0.98347370  0.82458352  0.11433029  1.0
