# generated using pymatgen
data_NaCl
_symmetry_space_group_name_H-M   'P 1'
_cell_length_a   5.19668617
_cell_length_b   5.19668617
_cell_length_c   7.87383874
_cell_angle_alpha   90.00000000
_cell_angle_beta   90.00000000
_cell_angle_gamma   90.00000000
_symmetry_Int_Tables_number   1
_chemical_formula_structural   NaCl
_chemical_formula_sum   'Na4 Cl4'
_cell_volume   212.63732334
_cell_formula_units_Z   4
loop_
 _symmetry_equiv_pos_site_id
 _symmetry_equiv_pos_as_xyz
  1  'x, y, z'
loop_
 _atom_site_type_symbol
 _atom_site_label
 _atom_site_symmetry_multiplicity
 _atom_site_fract_x
 _atom_site_fract_y
 _atom_site_fract_z
 _atom_site_occupancy
  Na  Na0  1  0.54998969  0.64504014  0.60551603  1.0
  Na  Na1  1  0.55443747  0.43149233  0.99285654  1.0
  Na  Na2  1  0.67557172  0.22123387  0.87929380  1.0
  Na  Na3  1  0.36439357  0.53938073  0.11118667  1.0
  Cl  Cl4  1  0.58488270  0.77104903  0.73824909  1.0
  Cl  Cl5  1  0.27534992  0.61954883  0.31179470  1.0
  Cl  Cl6  1  0.68206930  0.41587443  0.10525416  1.0
  Cl  Cl7  1  0.32186600  0.34988394  0.68700764  1.0
