# generated using pymatgen
data_NaCl
_symmetry_space_group_name_H-M   'P 1'
_cell_length_a   4.92666938
_cell_length_b   23.19377645
_cell_length_c   4.21159865
_cell_angle_alpha   90.00000000
_cell_angle_beta   142.49585118
_cell_angle_gamma   90.00000000
_symmetry_Int_Tables_number   1
_chemical_formula_structural   NaCl
_chemical_formula_sum   'Na4 Cl4'
_cell_volume   292.99483951
_cell_formula_units_Z   4
loop_
 _symmetry_equiv_pos_site_id
 _symmetry_equiv_pos_as_xyz
  1  'x, y, z'
loop_
 _atom_site_type_symbol
 _atom_site_label
 _atom_site_symmetry_multiplicity
 _atom_site_fract_x
 _atom_site_fract_y
 _atom_site_fract_z
 _atom_site_occupancy
  Na  Na0  1  0.92603625  0.60664647  0.36480987  1.0
  Na  Na1  1  0.48323215  0.12723640  0.89404378  1.0
  Na  Na2  1  0.28531344  0.43965415  0.44251673  1.0
  Na  Na3  1  0.87389818  0.77485444  0.16149524  1.0
  Cl  Cl4  1  0.73377655  0.59993912  0.47595729  1.0
  Cl  Cl5  1  0.59952385  0.00768788  0.48989478  1.0
  Cl  Cl6  1  0.23322833  0.51189594  0.45051064  1.0
  Cl  Cl7  1  0.57314428  0.14781801  0.32004945  1.0
