# generated using pymatgen
data_NaCl
_symmetry_space_group_name_H-M   'P 1'
_cell_length_a   3.97917744
_cell_length_b   3.97917744
_cell_length_c   7.45943573
_cell_angle_alpha   90.00000000
_cell_angle_beta   90.00000000
_cell_angle_gamma   90.00000000
_symmetry_Int_Tables_number   1
_chemical_formula_structural   NaCl
_chemical_formula_sum   'Na4 Cl4'
_cell_volume   118.11160955
_cell_formula_units_Z   4
loop_
 _symmetry_equiv_pos_site_id
 _symmetry_equiv_pos_as_xyz
  1  'x, y, z'
loop_
 _atom_site_type_symbol
 _atom_site_label
 _atom_site_symmetry_multiplicity
 _atom_site_fract_x
 _atom_site_fract_y
 _atom_site_fract_z
 _atom_site_occupancy
  Na  Na0  1  0.00000000  0.00000000  0.34601281  1.0
  Na  Na1  1  0.00000000  0.50000000  0.41417732  1.0
  Na  Na2  1  0.50000000  0.50000000  0.49910392  1.0
  Na  Na3  1  0.50000000  0.00000000  0.64040800  1.0
  Cl  Cl4  1  0.00000000  0.00000000  0.50271592  1.0
  Cl  Cl5  1  0.00000000  0.50000000  0.74092791  1.0
  Cl  Cl6  1  0.50000000  0.50000000  0.88818289  1.0
  Cl  Cl7  1  0.50000000  0.00000000  0.47752611  1.0
