# generated using pymatgen
data_NaCl
_symmetry_space_group_name_H-M   'P 1'
_cell_length_a   6.39492031
_cell_length_b   6.39492031
_cell_length_c   7.38871042
_cell_angle_alpha   90.00000000
_cell_angle_beta   90.00000000
_cell_angle_gamma   90.00000000
_symmetry_Int_Tables_number   1
_chemical_formula_structural   NaCl
_chemical_formula_sum   'Na4 Cl4'
_cell_volume   302.16135527
_cell_formula_units_Z   4
loop_
 _symmetry_equiv_pos_site_id
 _symmetry_equiv_pos_as_xyz
  1  'x, y, z'
loop_
 _atom_site_type_symbol
 _atom_site_label
 _atom_site_symmetry_multiplicity
 _atom_site_fract_x
 _atom_site_fract_y
 _atom_site_fract_z
 _atom_site_occupancy
  Na  Na0  1  0.92874889  0.51506304  0.32088881  1.0
  Na  Na1  1  0.55822415  0.24282623  0.70240990  1.0
  Na  Na2  1  0.38817608  0.18885565  0.18814139  1.0
  Na  Na3  1  0.17063828  0.34023750  0.59579714  1.0
  Cl  Cl4  1  0.74033958  0.55924030  0.41718275  1.0
  Cl  Cl5  1  0.64505192  0.31364354  0.03093042  1.0
  Cl  Cl6  1  0.73627067  0.29163882  0.69820553  1.0
  Cl  Cl7  1  0.53304953  0.49112636  0.25946587  1.0
