# generated using pymatgen
data_NaCl
_symmetry_space_group_name_H-M   'P 1'
_cell_length_a   5.20182729
_cell_length_b   5.20182729
_cell_length_c   6.99027939
_cell_angle_alpha   90.00000000
_cell_angle_beta   90.00000000
_cell_angle_gamma   90.00000000
_symmetry_Int_Tables_number   1
_chemical_formula_structural   NaCl
_chemical_formula_sum   'Na4 Cl4'
_cell_volume   189.15002003
_cell_formula_units_Z   4
loop_
 _symmetry_equiv_pos_site_id
 _symmetry_equiv_pos_as_xyz
  1  'x, y, z'
loop_
 _atom_site_type_symbol
 _atom_site_label
 _atom_site_symmetry_multiplicity
 _atom_site_fract_x
 _atom_site_fract_y
 _atom_site_fract_z
 _atom_site_occupancy
  Na  Na0  1  0.79216992  0.65800387  0.20481845  1.0
  Na  Na1  1  0.91124557  0.23505343  0.02480898  1.0
  Na  Na2  1  0.43705370  0.30455487  0.35862984  1.0
  Na  Na3  1  0.67201392  0.52961682  0.79999564  1.0
  Cl  Cl4  1  0.17997645  0.80528519  0.60522582  1.0
  Cl  Cl5  1  0.47554683  0.52343237  0.11613182  1.0
  Cl  Cl6  1  0.65128663  0.11017320  0.26250423  1.0
  Cl  Cl7  1  0.63639750  0.20654637  0.66479205  1.0
