# generated using pymatgen
data_NaCl
_symmetry_space_group_name_H-M   'P 1'
_cell_length_a   3.99527766
_cell_length_b   15.73935374
_cell_length_c   6.23338768
_cell_angle_alpha   90.00000000
_cell_angle_beta   90.00000000
_cell_angle_gamma   90.00000000
_symmetry_Int_Tables_number   1
_chemical_formula_structural   NaCl
_chemical_formula_sum   'Na4 Cl4'
_cell_volume   391.97466839
_cell_formula_units_Z   4
loop_
 _symmetry_equiv_pos_site_id
 _symmetry_equiv_pos_as_xyz
  1  'x, y, z'
loop_
 _atom_site_type_symbol
 _atom_site_label
 _atom_site_symmetry_multiplicity
 _atom_site_fract_x
 _atom_site_fract_y
 _atom_site_fract_z
 _atom_site_occupancy
  Na  Na0  1  0.81033421  0.73959266  0.53406257  1.0
  Na  Na1  1  0.03999106  0.44181460  0.90317627  1.0
  Na  Na2  1  0.96650528  0.96046690  0.52819121  1.0
  Na  Na3  1  0.67983133  0.17641892  0.92851565  1.0
  Cl  Cl4  1  0.75637459  0.65886919  0.48212659  1.0
  Cl  Cl5  1  0.83830574  0.27018808  0.20623784  1.0
  Cl  Cl6  1  0.84178952  0.03668551  0.10067291  1.0
  Cl  Cl7  1  0.01962311  0.90509499  0.68455731  1.0
