# generated using pymatgen
data_NaCl
_symmetry_space_group_name_H-M   'P 1'
_cell_length_a   6.05443339
_cell_length_b   6.05443339
_cell_length_c   10.16177624
_cell_angle_alpha   90.00000000
_cell_angle_beta   90.00000000
_cell_angle_gamma   90.00000000
_symmetry_Int_Tables_number   1
_chemical_formula_structural   NaCl
_chemical_formula_sum   'Na4 Cl4'
_cell_volume   372.49173307
_cell_formula_units_Z   4
loop_
 _symmetry_equiv_pos_site_id
 _symmetry_equiv_pos_as_xyz
  1  'x, y, z'
loop_
 _atom_site_type_symbol
 _atom_site_label
 _atom_site_symmetry_multiplicity
 _atom_site_fract_x
 _atom_site_fract_y
 _atom_site_fract_z
 _atom_site_occupancy
  Na  Na0  1  0.80791524  0.55762113  0.17631464  1.0
  Na  Na1  1  0.49708641  0.30341161  0.07052690  1.0
  Na  Na2  1  0.59749770  0.11367229  0.90901033  1.0
  Na  Na3  1  0.23794822  0.38907850  0.42277768  1.0
  Cl  Cl4  1  0.22741501  0.62360336  0.60740778  1.0
  Cl  Cl5  1  0.54389228  0.43409797  0.84237701  1.0
  Cl  Cl6  1  0.68991355  0.63046656  0.72971139  1.0
  Cl  Cl7  1  0.70902860  0.35533481  0.99555116  1.0
