# generated using pymatgen
data_NaCl
_symmetry_space_group_name_H-M   'P 1'
_cell_length_a   5.13530322
_cell_length_b   20.04635848
_cell_length_c   3.14578473
_cell_angle_alpha   90.00000000
_cell_angle_beta   90.00000000
_cell_angle_gamma   90.00000000
_symmetry_Int_Tables_number   1
_chemical_formula_structural   NaCl
_chemical_formula_sum   'Na4 Cl4'
_cell_volume   323.84006984
_cell_formula_units_Z   4
loop_
 _symmetry_equiv_pos_site_id
 _symmetry_equiv_pos_as_xyz
  1  'x, y, z'
loop_
 _atom_site_type_symbol
 _atom_site_label
 _atom_site_symmetry_multiplicity
 _atom_site_fract_x
 _atom_site_fract_y
 _atom_site_fract_z
 _atom_site_occupancy
  Na  Na0  1  0.62754298  0.53258578  0.50269950  1.0
  Na  Na1  1  0.19860208  0.30495072  0.09507714  1.0
  Na  Na2  1  0.78010665  0.91435432  0.80547769  1.0
  Na  Na3  1  0.20503734  0.98530918  0.23035516  1.0
  Cl  Cl4  1  0.68936055  0.62162439  0.72717838  1.0
  Cl  Cl5  1  0.25928525  0.49693823  0.06228750  1.0
  Cl  Cl6  1  0.57008602  0.95157558  0.61746152  1.0
  Cl  Cl7  1  0.92892243  0.95275873  0.82383515  1.0
