# generated using pymatgen
data_NaCl
_symmetry_space_group_name_H-M   'P 1'
_cell_length_a   6.38957482
_cell_length_b   18.07531355
_cell_length_c   4.57468929
_cell_angle_alpha   90.00000000
_cell_angle_beta   146.22065350
_cell_angle_gamma   90.00000000
_symmetry_Int_Tables_number   1
_chemical_formula_structural   NaCl
_chemical_formula_sum   'Na4 Cl4'
_cell_volume   293.75894177
_cell_formula_units_Z   4
loop_
 _symmetry_equiv_pos_site_id
 _symmetry_equiv_pos_as_xyz
  1  'x, y, z'
loop_
 _atom_site_type_symbol
 _atom_site_label
 _atom_site_symmetry_multiplicity
 _atom_site_fract_x
 _atom_site_fract_y
 _atom_site_fract_z
 _atom_site_occupancy
  Na  Na0  1  0.00000000  0.26794140  0.00000000  1.0
  Na  Na1  1  0.50000000  0.16075177  0.00000000  1.0
  Na  Na2  1  0.00000000  0.49248722  0.00000000  1.0
  Na  Na3  1  0.50000000  0.80349541  0.00000000  1.0
  Cl  Cl4  1  0.71176361  0.54972403  0.58795088  1.0
  Cl  Cl5  1  0.62559905  0.36449972  0.51652091  1.0
  Cl  Cl6  1  0.07276440  0.34773589  0.70981675  1.0
  Cl  Cl7  1  0.85055199  0.12615182  0.56693549  1.0
