# generated using pymatgen
data_NaCl
_symmetry_space_group_name_H-M   'P 1'
_cell_length_a   6.16637334
_cell_length_b   6.16637334
_cell_length_c   8.14749367
_cell_angle_alpha   90.00000000
_cell_angle_beta   90.00000000
_cell_angle_gamma   90.00000000
_symmetry_Int_Tables_number   1
_chemical_formula_structural   NaCl
_chemical_formula_sum   'Na4 Cl4'
_cell_volume   309.80160428
_cell_formula_units_Z   4
loop_
 _symmetry_equiv_pos_site_id
 _symmetry_equiv_pos_as_xyz
  1  'x, y, z'
loop_
 _atom_site_type_symbol
 _atom_site_label
 _atom_site_symmetry_multiplicity
 _atom_site_fract_x
 _atom_site_fract_y
 _atom_site_fract_z
 _atom_site_occupancy
  Na  Na0  1  0.86854462  0.03133512  0.31884729  1.0
  Na  Na1  1  0.23322403  0.35486632  0.81136373  1.0
  Na  Na2  1  0.40343008  0.16588491  0.39268173  1.0
  Na  Na3  1  0.12816942  0.90283320  0.06428930  1.0
  Cl  Cl4  1  0.66857377  0.56597838  0.47094144  1.0
  Cl  Cl5  1  0.34511746  0.00291151  0.16209267  1.0
  Cl  Cl6  1  0.05447456  0.26626209  0.19039008  1.0
  Cl  Cl7  1  0.62587034  0.34339670  0.80554866  1.0
