# generated using pymatgen
data_NaCl
_symmetry_space_group_name_H-M   'P 1'
_cell_length_a   7.27207663
_cell_length_b   7.27207663
_cell_length_c   7.27207663
_cell_angle_alpha   90.00000000
_cell_angle_beta   90.00000000
_cell_angle_gamma   90.00000000
_symmetry_Int_Tables_number   1
_chemical_formula_structural   NaCl
_chemical_formula_sum   'Na4 Cl4'
_cell_volume   384.56994482
_cell_formula_units_Z   4
loop_
 _symmetry_equiv_pos_site_id
 _symmetry_equiv_pos_as_xyz
  1  'x, y, z'
loop_
 _atom_site_type_symbol
 _atom_site_label
 _atom_site_symmetry_multiplicity
 _atom_site_fract_x
 _atom_site_fract_y
 _atom_site_fract_z
 _atom_site_occupancy
  Na  Na0  1  0.99930585  0.99930585  0.99930585  1.0
  Na  Na1  1  0.65498100  0.15498100  0.34501900  1.0
  Na  Na2  1  0.66646684  0.83353316  0.16646684  1.0
  Na  Na3  1  0.77663253  0.22336747  0.72336747  1.0
  Cl  Cl4  1  0.33213927  0.33213927  0.33213927  1.0
  Cl  Cl5  1  0.99392389  0.49392389  0.00607611  1.0
  Cl  Cl6  1  0.39404228  0.10595772  0.89404228  1.0
  Cl  Cl7  1  0.19340003  0.80659997  0.30659997  1.0
