# generated using pymatgen
data_NaCl
_symmetry_space_group_name_H-M   'P 1'
_cell_length_a   7.14776466
_cell_length_b   7.14776466
_cell_length_c   7.14776466
_cell_angle_alpha   90.00000000
_cell_angle_beta   90.00000000
_cell_angle_gamma   90.00000000
_symmetry_Int_Tables_number   1
_chemical_formula_structural   NaCl
_chemical_formula_sum   'Na4 Cl4'
_cell_volume   365.18315366
_cell_formula_units_Z   4
loop_
 _symmetry_equiv_pos_site_id
 _symmetry_equiv_pos_as_xyz
  1  'x, y, z'
loop_
 _atom_site_type_symbol
 _atom_site_label
 _atom_site_symmetry_multiplicity
 _atom_site_fract_x
 _atom_site_fract_y
 _atom_site_fract_z
 _atom_site_occupancy
  Na  Na0  1  0.62499409  0.62499409  0.62499409  1.0
  Na  Na1  1  0.00453074  0.50453074  0.99546926  1.0
  Na  Na2  1  0.79560526  0.70439474  0.29560526  1.0
  Na  Na3  1  0.56093414  0.43906586  0.93906586  1.0
  Cl  Cl4  1  0.99919157  0.99919157  0.99919157  1.0
  Cl  Cl5  1  0.38175635  0.88175635  0.61824365  1.0
  Cl  Cl6  1  0.94333181  0.55666819  0.44333181  1.0
  Cl  Cl7  1  0.98841306  0.01158694  0.51158694  1.0
