# generated using pymatgen
data_NaCl
_symmetry_space_group_name_H-M   'P 1'
_cell_length_a   6.90603821
_cell_length_b   6.90603821
_cell_length_c   7.62903451
_cell_angle_alpha   90.00000000
_cell_angle_beta   90.00000000
_cell_angle_gamma   90.00000000
_symmetry_Int_Tables_number   1
_chemical_formula_structural   NaCl
_chemical_formula_sum   'Na4 Cl4'
_cell_volume   363.85431801
_cell_formula_units_Z   4
loop_
 _symmetry_equiv_pos_site_id
 _symmetry_equiv_pos_as_xyz
  1  'x, y, z'
loop_
 _atom_site_type_symbol
 _atom_site_label
 _atom_site_symmetry_multiplicity
 _atom_site_fract_x
 _atom_site_fract_y
 _atom_site_fract_z
 _atom_site_occupancy
  Na  Na0  1  0.85136577  0.10619441  0.40650742  1.0
  Na  Na1  1  0.26169520  0.48202002  0.81303604  1.0
  Na  Na2  1  0.50081984  0.21071039  0.89625390  1.0
  Na  Na3  1  0.02486063  0.87108049  0.69489634  1.0
  Cl  Cl4  1  0.61905712  0.66309465  0.44804166  1.0
  Cl  Cl5  1  0.44234912  0.07015549  0.99661427  1.0
  Cl  Cl6  1  0.04632716  0.65765504  0.70009912  1.0
  Cl  Cl7  1  0.71700044  0.26221383  0.29675091  1.0
