# generated using pymatgen
data_NaCl
_symmetry_space_group_name_H-M   'P 1'
_cell_length_a   5.17900877
_cell_length_b   5.17900877
_cell_length_c   5.17900877
_cell_angle_alpha   90.00000000
_cell_angle_beta   90.00000000
_cell_angle_gamma   90.00000000
_symmetry_Int_Tables_number   1
_chemical_formula_structural   NaCl
_chemical_formula_sum   'Na4 Cl4'
_cell_volume   138.91205603
_cell_formula_units_Z   4
loop_
 _symmetry_equiv_pos_site_id
 _symmetry_equiv_pos_as_xyz
  1  'x, y, z'
loop_
 _atom_site_type_symbol
 _atom_site_label
 _atom_site_symmetry_multiplicity
 _atom_site_fract_x
 _atom_site_fract_y
 _atom_site_fract_z
 _atom_site_occupancy
  Na  Na0  1  0.92745148  0.92745148  0.92745148  1.0
  Na  Na1  1  0.88521813  0.38521813  0.11478187  1.0
  Na  Na2  1  0.62497397  0.87502603  0.12497397  1.0
  Na  Na3  1  0.63870619  0.36129381  0.86129381  1.0
  Cl  Cl4  1  0.73489532  0.73489532  0.73489532  1.0
  Cl  Cl5  1  0.72471539  0.22471539  0.27528461  1.0
  Cl  Cl6  1  0.38450505  0.11549495  0.88450505  1.0
  Cl  Cl7  1  0.29870753  0.70129247  0.20129247  1.0
