# generated using pymatgen
data_NaCl
_symmetry_space_group_name_H-M   'P 1'
_cell_length_a   5.25125674
_cell_length_b   5.25125674
_cell_length_c   10.33294667
_cell_angle_alpha   90.00000000
_cell_angle_beta   90.00000000
_cell_angle_gamma   90.00000000
_symmetry_Int_Tables_number   1
_chemical_formula_structural   NaCl
_chemical_formula_sum   'Na4 Cl4'
_cell_volume   284.93821010
_cell_formula_units_Z   4
loop_
 _symmetry_equiv_pos_site_id
 _symmetry_equiv_pos_as_xyz
  1  'x, y, z'
loop_
 _atom_site_type_symbol
 _atom_site_label
 _atom_site_symmetry_multiplicity
 _atom_site_fract_x
 _atom_site_fract_y
 _atom_site_fract_z
 _atom_site_occupancy
  Na  Na0  1  0.82482572  0.58332924  0.08948665  1.0
  Na  Na1  1  0.41611993  0.35660634  0.15726609  1.0
  Na  Na2  1  0.25446971  0.36832316  0.86025362  1.0
  Na  Na3  1  0.14577274  0.95404851  0.26237715  1.0
  Cl  Cl4  1  0.75636688  0.30953382  0.59727304  1.0
  Cl  Cl5  1  0.72041065  0.39433336  0.04914541  1.0
  Cl  Cl6  1  0.71514123  0.04399675  0.64244624  1.0
  Cl  Cl7  1  0.69742484  0.35769364  0.15718428  1.0
