# generated using pymatgen
data_NaCl
_symmetry_space_group_name_H-M   'P 1'
_cell_length_a   14.30578561
_cell_length_b   14.30578561
_cell_length_c   19.60901071
_cell_angle_alpha   90.00000000
_cell_angle_beta   90.00000000
_cell_angle_gamma   90.00000000
_symmetry_Int_Tables_number   1
_chemical_formula_structural   NaCl
_chemical_formula_sum   'Na4 Cl4'
_cell_volume   4013.09192757
_cell_formula_units_Z   4
loop_
 _symmetry_equiv_pos_site_id
 _symmetry_equiv_pos_as_xyz
  1  'x, y, z'
loop_
 _atom_site_type_symbol
 _atom_site_label
 _atom_site_symmetry_multiplicity
 _atom_site_fract_x
 _atom_site_fract_y
 _atom_site_fract_z
 _atom_site_occupancy
  Na  Na0  1  0.05671196  0.05671196  0.28014880  1
  Na  Na1  1  -0.88239114  -0.88239114  0.31365642  1
  Na  Na2  1  -0.12245632  0.12245632  0.58573282  1
  Na  Na3  1  0.17552193  -0.17552193  1.45178835  1
  Cl  Cl4  1  0.00000000  0.00000000  0.49572145  1
  Cl  Cl5  1  0.00000000  0.00000000  0.58820166  1
  Cl  Cl6  1  0.00000000  0.00000000  0.96736385  1
  Cl  Cl7  1  0.00000000  0.00000000  0.72769651  1
