# generated using pymatgen
data_NaCl
_symmetry_space_group_name_H-M   'P 1'
_cell_length_a   3.02316132
_cell_length_b   3.02316132
_cell_length_c   23.73618653
_cell_angle_alpha   90.00000000
_cell_angle_beta   90.00000000
_cell_angle_gamma   90.00000000
_symmetry_Int_Tables_number   1
_chemical_formula_structural   NaCl
_chemical_formula_sum   'Na4 Cl4'
_cell_volume   216.93698044
_cell_formula_units_Z   4
loop_
 _symmetry_equiv_pos_site_id
 _symmetry_equiv_pos_as_xyz
  1  'x, y, z'
loop_
 _atom_site_type_symbol
 _atom_site_label
 _atom_site_symmetry_multiplicity
 _atom_site_fract_x
 _atom_site_fract_y
 _atom_site_fract_z
 _atom_site_occupancy
  Na  Na0  1  0.28362052  0.28362052  0.37500000  1.0
  Na  Na1  1  0.24446026  0.24446026  0.87500000  1.0
  Na  Na2  1  0.91983174  0.08016826  0.62500000  1.0
  Na  Na3  1  0.32614904  0.67385096  0.12500000  1.0
  Cl  Cl4  1  0.50000000  0.63599592  0.00000000  1.0
  Cl  Cl5  1  0.50000000  0.89972693  0.50000000  1.0
  Cl  Cl6  1  0.57237272  0.50000000  0.25000000  1.0
  Cl  Cl7  1  0.56361090  0.50000000  0.75000000  1.0
