# generated using pymatgen
data_NaCl
_symmetry_space_group_name_H-M   'P 1'
_cell_length_a   8.77330974
_cell_length_b   8.77330974
_cell_length_c   3.55992574
_cell_angle_alpha   90.00000000
_cell_angle_beta   90.00000000
_cell_angle_gamma   90.00000000
_symmetry_Int_Tables_number   1
_chemical_formula_structural   NaCl
_chemical_formula_sum   'Na4 Cl4'
_cell_volume   274.01091524
_cell_formula_units_Z   4
loop_
 _symmetry_equiv_pos_site_id
 _symmetry_equiv_pos_as_xyz
  1  'x, y, z'
loop_
 _atom_site_type_symbol
 _atom_site_label
 _atom_site_symmetry_multiplicity
 _atom_site_fract_x
 _atom_site_fract_y
 _atom_site_fract_z
 _atom_site_occupancy
  Na  Na0  1  0.31082665  0.07369830  0.93349864  1.0
  Na  Na1  1  0.28497647  0.54307395  0.26760304  1.0
  Na  Na2  1  0.37904034  0.24593754  0.12289649  1.0
  Na  Na3  1  0.16884962  0.69041709  0.24837951  1.0
  Cl  Cl4  1  0.33783549  0.36390929  0.56786093  1.0
  Cl  Cl5  1  0.36823720  0.83422451  0.46327258  1.0
  Cl  Cl6  1  0.39549394  0.94030142  0.45496610  1.0
  Cl  Cl7  1  0.41741629  0.75563167  0.75708479  1.0
