# generated using pymatgen
data_NaCl
_symmetry_space_group_name_H-M   'P 1'
_cell_length_a   5.50195713
_cell_length_b   5.50195713
_cell_length_c   5.50195713
_cell_angle_alpha   90.00000000
_cell_angle_beta   90.00000000
_cell_angle_gamma   90.00000000
_symmetry_Int_Tables_number   1
_chemical_formula_structural   NaCl
_chemical_formula_sum   'Na4 Cl4'
_cell_volume   166.55267276
_cell_formula_units_Z   4
loop_
 _symmetry_equiv_pos_site_id
 _symmetry_equiv_pos_as_xyz
  1  'x, y, z'
loop_
 _atom_site_type_symbol
 _atom_site_label
 _atom_site_symmetry_multiplicity
 _atom_site_fract_x
 _atom_site_fract_y
 _atom_site_fract_z
 _atom_site_occupancy
  Na  Na0  1  0.46455067  0.46455067  0.46455067  1.0
  Na  Na1  1  0.62348666  0.12348666  0.37651334  1.0
  Na  Na2  1  0.97107603  0.52892397  0.47107603  1.0
  Na  Na3  1  0.49977505  0.50022495  0.00022495  1.0
  Cl  Cl4  1  0.10165556  0.10165556  0.10165556  1.0
  Cl  Cl5  1  0.23919071  0.73919071  0.76080929  1.0
  Cl  Cl6  1  0.53414723  0.96585277  0.03414723  1.0
  Cl  Cl7  1  0.02686286  0.97313714  0.47313714  1.0
