# generated using pymatgen
data_NaCl
_symmetry_space_group_name_H-M   'P 1'
_cell_length_a   4.93496215
_cell_length_b   17.42277432
_cell_length_c   7.92067086
_cell_angle_alpha   90.00000000
_cell_angle_beta   150.04901166
_cell_angle_gamma   90.00000000
_symmetry_Int_Tables_number   1
_chemical_formula_structural   NaCl
_chemical_formula_sum   'Na4 Cl4'
_cell_volume   340.00790314
_cell_formula_units_Z   4
loop_
 _symmetry_equiv_pos_site_id
 _symmetry_equiv_pos_as_xyz
  1  'x, y, z'
loop_
 _atom_site_type_symbol
 _atom_site_label
 _atom_site_symmetry_multiplicity
 _atom_site_fract_x
 _atom_site_fract_y
 _atom_site_fract_z
 _atom_site_occupancy
  Na  Na0  1  0.82666501  0.73147282  0.33141814  1.0
  Na  Na1  1  0.20309528  0.47611054  0.65732870  1.0
  Na  Na2  1  0.13401351  0.25163116  0.78304718  1.0
  Na  Na3  1  0.61911273  0.20471101  0.92334944  1.0
  Cl  Cl4  1  0.12197447  0.66872771  0.68470245  1.0
  Cl  Cl5  1  0.98258376  0.99884970  0.36468290  1.0
  Cl  Cl6  1  0.70397881  0.32547863  0.22496351  1.0
  Cl  Cl7  1  0.70926212  0.66781876  0.12584686  1.0
