# generated using pymatgen
data_NaCl
_symmetry_space_group_name_H-M   'P 1'
_cell_length_a   5.18859881
_cell_length_b   6.74064627
_cell_length_c   5.85095319
_cell_angle_alpha   90.00000000
_cell_angle_beta   76.90534532
_cell_angle_gamma   90.00000000
_symmetry_Int_Tables_number   1
_chemical_formula_structural   NaCl
_chemical_formula_sum   'Na4 Cl4'
_cell_volume   199.31313486
_cell_formula_units_Z   4
loop_
 _symmetry_equiv_pos_site_id
 _symmetry_equiv_pos_as_xyz
  1  'x, y, z'
loop_
 _atom_site_type_symbol
 _atom_site_label
 _atom_site_symmetry_multiplicity
 _atom_site_fract_x
 _atom_site_fract_y
 _atom_site_fract_z
 _atom_site_occupancy
  Na  Na0  1  0.86989839  0.25000000  0.66908410  1.0
  Na  Na1  1  0.02508283  0.75000000  0.67725999  1.0
  Na  Na2  1  0.05341637  0.25000000  0.44266381  1.0
  Na  Na3  1  0.97618043  0.75000000  0.99827924  1.0
  Cl  Cl4  1  0.13570080  0.54867564  0.11855367  1.0
  Cl  Cl5  1  0.11934228  0.43390866  0.38041316  1.0
  Cl  Cl6  1  0.37823077  0.27146268  0.92162502  1.0
  Cl  Cl7  1  0.66447386  0.78214632  0.33507119  1.0
