# generated using pymatgen
data_NaCl
_symmetry_space_group_name_H-M   'P 1'
_cell_length_a   4.62872596
_cell_length_b   5.66962401
_cell_length_c   3.97228407
_cell_angle_alpha   90.00000000
_cell_angle_beta   90.00000000
_cell_angle_gamma   90.00000000
_symmetry_Int_Tables_number   1
_chemical_formula_structural   NaCl
_chemical_formula_sum   'Na4 Cl4'
_cell_volume   104.24519044
_cell_formula_units_Z   4
loop_
 _symmetry_equiv_pos_site_id
 _symmetry_equiv_pos_as_xyz
  1  'x, y, z'
loop_
 _atom_site_type_symbol
 _atom_site_label
 _atom_site_symmetry_multiplicity
 _atom_site_fract_x
 _atom_site_fract_y
 _atom_site_fract_z
 _atom_site_occupancy
  Na  Na0  1  0.25367622  0.09912550  0.37532431  1.0
  Na  Na1  1  0.68376657  0.59589500  0.76049223  1.0
  Na  Na2  1  0.99917868  0.02105648  0.73583123  1.0
  Na  Na3  1  0.53595874  0.13287674  0.42317524  1.0
  Cl  Cl4  1  0.52013079  0.99907201  0.05092196  1.0
  Cl  Cl5  1  0.82855875  0.34699931  0.43481591  1.0
  Cl  Cl6  1  0.03160852  0.25062229  0.25714652  1.0
  Cl  Cl7  1  0.64909508  0.95756112  0.89555883  1.0
