# generated using pymatgen
data_NaCl
_symmetry_space_group_name_H-M   'P 1'
_cell_length_a   3.59813313
_cell_length_b   10.52250333
_cell_length_c   4.94671101
_cell_angle_alpha   90.00000000
_cell_angle_beta   90.00000000
_cell_angle_gamma   90.00000000
_symmetry_Int_Tables_number   1
_chemical_formula_structural   NaCl
_chemical_formula_sum   'Na4 Cl4'
_cell_volume   187.28924516
_cell_formula_units_Z   4
loop_
 _symmetry_equiv_pos_site_id
 _symmetry_equiv_pos_as_xyz
  1  'x, y, z'
loop_
 _atom_site_type_symbol
 _atom_site_label
 _atom_site_symmetry_multiplicity
 _atom_site_fract_x
 _atom_site_fract_y
 _atom_site_fract_z
 _atom_site_occupancy
  Na  Na0  1  0.07051159  0.19989289  0.47738036  1.0
  Na  Na1  1  0.27498783  0.41541171  0.74929941  1.0
  Na  Na2  1  0.67296987  0.24050535  0.40679986  1.0
  Na  Na3  1  0.15654638  0.22117841  0.80921345  1.0
  Cl  Cl4  1  0.17588515  0.80011555  0.20494103  1.0
  Cl  Cl5  1  0.60078095  0.08116928  0.75503951  1.0
  Cl  Cl6  1  0.42398148  0.14804178  0.14015652  1.0
  Cl  Cl7  1  0.31019880  0.42652862  0.08377096  1.0
