# generated using pymatgen
data_NaCl
_symmetry_space_group_name_H-M   'P 1'
_cell_length_a   8.04033752
_cell_length_b   6.09407740
_cell_length_c   3.35669166
_cell_angle_alpha   90.00000000
_cell_angle_beta   90.00000000
_cell_angle_gamma   90.00000000
_symmetry_Int_Tables_number   1
_chemical_formula_structural   NaCl
_chemical_formula_sum   'Na4 Cl4'
_cell_volume   164.47265211
_cell_formula_units_Z   4
loop_
 _symmetry_equiv_pos_site_id
 _symmetry_equiv_pos_as_xyz
  1  'x, y, z'
loop_
 _atom_site_type_symbol
 _atom_site_label
 _atom_site_symmetry_multiplicity
 _atom_site_fract_x
 _atom_site_fract_y
 _atom_site_fract_z
 _atom_site_occupancy
  Na  Na0  1  0.16233619  0.93847018  0.55424280  1.0
  Na  Na1  1  0.46523638  0.20423311  0.15403355  1.0
  Na  Na2  1  0.39595365  0.73695495  0.58472340  1.0
  Na  Na3  1  0.55996055  0.89775057  0.43571290  1.0
  Cl  Cl4  1  0.39279740  0.94250277  0.29931029  1.0
  Cl  Cl5  1  0.26514267  0.16479049  0.18909873  1.0
  Cl  Cl6  1  0.73164579  0.99463259  0.99933400  1.0
  Cl  Cl7  1  0.74389095  0.59508497  0.34634190  1.0
