# generated using pymatgen
data_NaCl
_symmetry_space_group_name_H-M   'P 1'
_cell_length_a   3.71249320
_cell_length_b   3.71249320
_cell_length_c   12.97685014
_cell_angle_alpha   90.00000000
_cell_angle_beta   90.00000000
_cell_angle_gamma   90.00000000
_symmetry_Int_Tables_number   1
_chemical_formula_structural   NaCl
_chemical_formula_sum   'Na4 Cl4'
_cell_volume   178.85480949
_cell_formula_units_Z   4
loop_
 _symmetry_equiv_pos_site_id
 _symmetry_equiv_pos_as_xyz
  1  'x, y, z'
loop_
 _atom_site_type_symbol
 _atom_site_label
 _atom_site_symmetry_multiplicity
 _atom_site_fract_x
 _atom_site_fract_y
 _atom_site_fract_z
 _atom_site_occupancy
  Na  Na0  1  0.00000000  0.00000000  0.00000000  1.0
  Na  Na1  1  0.00000000  0.50000000  0.20067031  1.0
  Na  Na2  1  0.50000000  0.00000000  0.81039140  1.0
  Na  Na3  1  0.50000000  0.50000000  0.50000000  1.0
  Cl  Cl4  1  0.25996232  0.60753968  0.36595950  1.0
  Cl  Cl5  1  0.23757432  0.23739054  0.32390961  1.0
  Cl  Cl6  1  0.62468382  0.16892166  0.92764487  1.0
  Cl  Cl7  1  0.14825138  0.06410508  0.26519041  1.0
