# generated using pymatgen
data_NaCl
_symmetry_space_group_name_H-M   'P 1'
_cell_length_a   6.63341700
_cell_length_b   6.63341700
_cell_length_c   5.45512610
_cell_angle_alpha   90.00000000
_cell_angle_beta   90.00000000
_cell_angle_gamma   90.00000000
_symmetry_Int_Tables_number   1
_chemical_formula_structural   NaCl
_chemical_formula_sum   'Na4 Cl4'
_cell_volume   240.03766476
_cell_formula_units_Z   4
loop_
 _symmetry_equiv_pos_site_id
 _symmetry_equiv_pos_as_xyz
  1  'x, y, z'
loop_
 _atom_site_type_symbol
 _atom_site_label
 _atom_site_symmetry_multiplicity
 _atom_site_fract_x
 _atom_site_fract_y
 _atom_site_fract_z
 _atom_site_occupancy
  Na  Na0  1  0.31338486  0.12002231  0.52609129  1.0
  Na  Na1  1  0.47144975  0.22451512  0.85480989  1.0
  Na  Na2  1  0.69288473  0.13969747  0.21208842  1.0
  Na  Na3  1  0.91405688  0.56248298  0.08333728  1.0
  Cl  Cl4  1  0.29972215  0.50591826  0.24583663  1.0
  Cl  Cl5  1  0.34017617  0.09363676  0.77465317  1.0
  Cl  Cl6  1  0.43531075  0.74537071  0.30541465  1.0
  Cl  Cl7  1  0.66554039  0.93801554  0.27382225  1.0
