# generated using pymatgen
data_NaCl
_symmetry_space_group_name_H-M   'P 1'
_cell_length_a   4.67796723
_cell_length_b   3.25127775
_cell_length_c   20.59230079
_cell_angle_alpha   90.00000000
_cell_angle_beta   88.81211805
_cell_angle_gamma   90.00000000
_symmetry_Int_Tables_number   1
_chemical_formula_structural   NaCl
_chemical_formula_sum   'Na4 Cl4'
_cell_volume   313.12862892
_cell_formula_units_Z   4
loop_
 _symmetry_equiv_pos_site_id
 _symmetry_equiv_pos_as_xyz
  1  'x, y, z'
loop_
 _atom_site_type_symbol
 _atom_site_label
 _atom_site_symmetry_multiplicity
 _atom_site_fract_x
 _atom_site_fract_y
 _atom_site_fract_z
 _atom_site_occupancy
  Na  Na0  1  0.53309727  0.09868608  0.48922980  1.0
  Na  Na1  1  0.63523386  0.27714977  0.65812628  1.0
  Na  Na2  1  0.67947076  0.65074556  0.34760659  1.0
  Na  Na3  1  0.58854634  0.04189167  0.93587420  1.0
  Cl  Cl4  1  0.37043435  0.89761976  0.22571090  1.0
  Cl  Cl5  1  0.67587441  0.06662873  0.88598513  1.0
  Cl  Cl6  1  0.65230733  0.06949652  0.14167144  1.0
  Cl  Cl7  1  0.53433423  0.71277312  0.96761241  1.0
