# generated using pymatgen
data_NaCl
_symmetry_space_group_name_H-M   'P 1'
_cell_length_a   5.92649627
_cell_length_b   5.92649627
_cell_length_c   5.92649627
_cell_angle_alpha   90.00000000
_cell_angle_beta   90.00000000
_cell_angle_gamma   90.00000000
_symmetry_Int_Tables_number   1
_chemical_formula_structural   NaCl
_chemical_formula_sum   'Na4 Cl4'
_cell_volume   208.15845040
_cell_formula_units_Z   4
loop_
 _symmetry_equiv_pos_site_id
 _symmetry_equiv_pos_as_xyz
  1  'x, y, z'
loop_
 _atom_site_type_symbol
 _atom_site_label
 _atom_site_symmetry_multiplicity
 _atom_site_fract_x
 _atom_site_fract_y
 _atom_site_fract_z
 _atom_site_occupancy
  Na  Na0  1  0.04531490  0.04531490  0.04531490  1.0
  Na  Na1  1  0.22688659  0.72688659  0.77311341  1.0
  Na  Na2  1  0.82373832  0.67626168  0.32373832  1.0
  Na  Na3  1  0.91253940  0.08746060  0.58746060  1.0
  Cl  Cl4  1  0.34638623  0.34638623  0.34638623  1.0
  Cl  Cl5  1  0.96837137  0.46837137  0.03162863  1.0
  Cl  Cl6  1  0.20092241  0.29907759  0.70092241  1.0
  Cl  Cl7  1  0.52840189  0.47159811  0.97159811  1.0
