# generated using pymatgen
data_NaCl
_symmetry_space_group_name_H-M   'P 1'
_cell_length_a   6.89829049
_cell_length_b   10.26332269
_cell_length_c   3.98261204
_cell_angle_alpha   90.00000000
_cell_angle_beta   90.66185169
_cell_angle_gamma   90.00000000
_symmetry_Int_Tables_number   1
_chemical_formula_structural   NaCl
_chemical_formula_sum   'Na4 Cl4'
_cell_volume   281.94765626
_cell_formula_units_Z   4
loop_
 _symmetry_equiv_pos_site_id
 _symmetry_equiv_pos_as_xyz
  1  'x, y, z'
loop_
 _atom_site_type_symbol
 _atom_site_label
 _atom_site_symmetry_multiplicity
 _atom_site_fract_x
 _atom_site_fract_y
 _atom_site_fract_z
 _atom_site_occupancy
  Na  Na0  1  0.41488252  0.10892216  0.37271956  1.0
  Na  Na1  1  0.48877905  0.16491929  0.74224891  1.0
  Na  Na2  1  0.10742714  0.17700409  0.42038402  1.0
  Na  Na3  1  0.86556187  0.11554806  0.45018888  1.0
  Cl  Cl4  1  0.46185347  0.88672333  0.12391434  1.0
  Cl  Cl5  1  0.21340181  0.30602828  0.70964610  1.0
  Cl  Cl6  1  0.85353062  0.38378438  0.04980566  1.0
  Cl  Cl7  1  0.90754095  0.37929139  0.42249705  1.0
