# generated using pymatgen
data_NaCl
_symmetry_space_group_name_H-M   'P 1'
_cell_length_a   7.66050378
_cell_length_b   12.61849575
_cell_length_c   3.33600568
_cell_angle_alpha   90.00000000
_cell_angle_beta   113.39326057
_cell_angle_gamma   90.00000000
_symmetry_Int_Tables_number   1
_chemical_formula_structural   NaCl
_chemical_formula_sum   'Na4 Cl4'
_cell_volume   295.96501863
_cell_formula_units_Z   4
loop_
 _symmetry_equiv_pos_site_id
 _symmetry_equiv_pos_as_xyz
  1  'x, y, z'
loop_
 _atom_site_type_symbol
 _atom_site_label
 _atom_site_symmetry_multiplicity
 _atom_site_fract_x
 _atom_site_fract_y
 _atom_site_fract_z
 _atom_site_occupancy
  Na  Na0  1  0.03278552  0.50000000  0.43505314  1.0
  Na  Na1  1  0.61933198  0.50000000  0.30970264  1.0
  Na  Na2  1  0.15705389  0.20733664  0.32270236  1.0
  Na  Na3  1  0.32247986  0.15092438  0.52266804  1.0
  Cl  Cl4  1  0.21450040  0.00000000  0.32596613  1.0
  Cl  Cl5  1  0.64380575  0.00000000  0.36740397  1.0
  Cl  Cl6  1  0.91814421  0.50000000  0.02883593  1.0
  Cl  Cl7  1  0.17794044  0.50000000  0.75240220  1.0
