# generated using pymatgen
data_NaCl
_symmetry_space_group_name_H-M   'P 1'
_cell_length_a   7.32537876
_cell_length_b   8.94505711
_cell_length_c   4.40917741
_cell_angle_alpha   90.00000000
_cell_angle_beta   90.00000000
_cell_angle_gamma   90.00000000
_symmetry_Int_Tables_number   1
_chemical_formula_structural   NaCl
_chemical_formula_sum   'Na4 Cl4'
_cell_volume   288.91545632
_cell_formula_units_Z   4
loop_
 _symmetry_equiv_pos_site_id
 _symmetry_equiv_pos_as_xyz
  1  'x, y, z'
loop_
 _atom_site_type_symbol
 _atom_site_label
 _atom_site_symmetry_multiplicity
 _atom_site_fract_x
 _atom_site_fract_y
 _atom_site_fract_z
 _atom_site_occupancy
  Na  Na0  1  0.25000000  0.64171180  0.91925232  1.0
  Na  Na1  1  0.75000000  0.07315731  0.10421595  1.0
  Na  Na2  1  0.75000000  0.84825290  0.37628983  1.0
  Na  Na3  1  0.25000000  0.05736828  0.65460521  1.0
  Cl  Cl4  1  0.00000000  0.00000000  0.23578326  1.0
  Cl  Cl5  1  0.50000000  0.00000000  0.25182800  1.0
  Cl  Cl6  1  0.50000000  0.50000000  0.72067557  1.0
  Cl  Cl7  1  0.00000000  0.50000000  0.70697455  1.0
