# generated using pymatgen
data_NaCl
_symmetry_space_group_name_H-M   'P 1'
_cell_length_a   6.09153793
_cell_length_b   9.40406962
_cell_length_c   6.32385439
_cell_angle_alpha   90.00000000
_cell_angle_beta   136.88827337
_cell_angle_gamma   90.00000000
_symmetry_Int_Tables_number   1
_chemical_formula_structural   NaCl
_chemical_formula_sum   'Na4 Cl4'
_cell_volume   247.57932115
_cell_formula_units_Z   4
loop_
 _symmetry_equiv_pos_site_id
 _symmetry_equiv_pos_as_xyz
  1  'x, y, z'
loop_
 _atom_site_type_symbol
 _atom_site_label
 _atom_site_symmetry_multiplicity
 _atom_site_fract_x
 _atom_site_fract_y
 _atom_site_fract_z
 _atom_site_occupancy
  Na  Na0  1  0.52724862  0.24013721  0.34397164  1.0
  Na  Na1  1  0.41815282  0.71990668  0.78944351  1.0
  Na  Na2  1  0.17220178  0.41106147  0.31631787  1.0
  Na  Na3  1  0.98319109  0.68601889  0.54504373  1.0
  Cl  Cl4  1  0.27249711  0.67549502  0.21205303  1.0
  Cl  Cl5  1  0.37132690  0.51872615  0.61175409  1.0
  Cl  Cl6  1  0.79418475  0.30871964  0.08305050  1.0
  Cl  Cl7  1  0.41480774  0.52802135  0.77099449  1.0
