# generated using pymatgen
data_NaCl
_symmetry_space_group_name_H-M   'P 1'
_cell_length_a   7.41984289
_cell_length_b   10.04817273
_cell_length_c   3.86850898
_cell_angle_alpha   90.00000000
_cell_angle_beta   90.00000000
_cell_angle_gamma   90.00000000
_symmetry_Int_Tables_number   1
_chemical_formula_structural   NaCl
_chemical_formula_sum   'Na4 Cl4'
_cell_volume   288.42002548
_cell_formula_units_Z   4
loop_
 _symmetry_equiv_pos_site_id
 _symmetry_equiv_pos_as_xyz
  1  'x, y, z'
loop_
 _atom_site_type_symbol
 _atom_site_label
 _atom_site_symmetry_multiplicity
 _atom_site_fract_x
 _atom_site_fract_y
 _atom_site_fract_z
 _atom_site_occupancy
  Na  Na0  1  0.00275836  0.26763324  0.49520851  1.0
  Na  Na1  1  0.19093332  0.00030427  0.18714344  1.0
  Na  Na2  1  0.81136875  0.14027601  0.32153391  1.0
  Na  Na3  1  0.99833376  0.13760559  0.09626094  1.0
  Cl  Cl4  1  0.99819588  0.70768290  0.30899928  1.0
  Cl  Cl5  1  0.36272781  0.48566416  0.52682601  1.0
  Cl  Cl6  1  0.55148268  0.95058885  0.57040349  1.0
  Cl  Cl7  1  0.89736003  0.19954620  0.69512885  1.0
