# generated using pymatgen
data_NaCl
_symmetry_space_group_name_H-M   'P 1'
_cell_length_a   5.23971689
_cell_length_b   10.07364855
_cell_length_c   7.10209364
_cell_angle_alpha   90.00000000
_cell_angle_beta   90.00000000
_cell_angle_gamma   90.00000000
_symmetry_Int_Tables_number   1
_chemical_formula_structural   NaCl
_chemical_formula_sum   'Na4 Cl4'
_cell_volume   374.87028054
_cell_formula_units_Z   4
loop_
 _symmetry_equiv_pos_site_id
 _symmetry_equiv_pos_as_xyz
  1  'x, y, z'
loop_
 _atom_site_type_symbol
 _atom_site_label
 _atom_site_symmetry_multiplicity
 _atom_site_fract_x
 _atom_site_fract_y
 _atom_site_fract_z
 _atom_site_occupancy
  Na  Na0  1  0.50486346  0.12722795  0.40680628  1.0
  Na  Na1  1  0.39949788  0.29222916  0.73031667  1.0
  Na  Na2  1  0.10834455  0.85273248  0.19210971  1.0
  Na  Na3  1  0.90850942  0.64626971  0.59879151  1.0
  Cl  Cl4  1  0.50000000  0.71235186  0.27035590  1.0
  Cl  Cl5  1  0.50000000  0.11504335  0.74831495  1.0
  Cl  Cl6  1  0.50000000  0.50292242  0.19747666  1.0
  Cl  Cl7  1  0.50000000  0.25443675  0.06723889  1.0
