# generated using pymatgen
data_NaCl
_symmetry_space_group_name_H-M   'P 1'
_cell_length_a   6.21520711
_cell_length_b   9.89657736
_cell_length_c   3.92385437
_cell_angle_alpha   90.00000000
_cell_angle_beta   90.00000000
_cell_angle_gamma   90.00000000
_symmetry_Int_Tables_number   1
_chemical_formula_structural   NaCl
_chemical_formula_sum   'Na4 Cl4'
_cell_volume   241.35344917
_cell_formula_units_Z   4
loop_
 _symmetry_equiv_pos_site_id
 _symmetry_equiv_pos_as_xyz
  1  'x, y, z'
loop_
 _atom_site_type_symbol
 _atom_site_label
 _atom_site_symmetry_multiplicity
 _atom_site_fract_x
 _atom_site_fract_y
 _atom_site_fract_z
 _atom_site_occupancy
  Na  Na0  1  0.09321538  0.21049517  0.42437106  1.0
  Na  Na1  1  0.31605622  0.28016682  0.18375812  1.0
  Na  Na2  1  0.41279926  0.79436140  0.64314737  1.0
  Na  Na3  1  0.67771430  0.88495626  0.59242210  1.0
  Cl  Cl4  1  0.00000000  0.50000000  0.40377912  1.0
  Cl  Cl5  1  0.50000000  0.00000000  0.71851988  1.0
  Cl  Cl6  1  0.00000000  0.50000000  0.10828169  1.0
  Cl  Cl7  1  0.50000000  0.00000000  0.42771906  1.0
