# generated using pymatgen
data_NaCl
_symmetry_space_group_name_H-M   'P 1'
_cell_length_a   11.35500216
_cell_length_b   6.39460657
_cell_length_c   5.46092814
_cell_angle_alpha   90.00000000
_cell_angle_beta   90.00000000
_cell_angle_gamma   90.00000000
_symmetry_Int_Tables_number   1
_chemical_formula_structural   NaCl
_chemical_formula_sum   'Na4 Cl4'
_cell_volume   396.52220489
_cell_formula_units_Z   4
loop_
 _symmetry_equiv_pos_site_id
 _symmetry_equiv_pos_as_xyz
  1  'x, y, z'
loop_
 _atom_site_type_symbol
 _atom_site_label
 _atom_site_symmetry_multiplicity
 _atom_site_fract_x
 _atom_site_fract_y
 _atom_site_fract_z
 _atom_site_occupancy
  Na  Na0  1  0.76000974  0.49076340  0.68528108  1.0
  Na  Na1  1  0.36712623  0.43189708  0.90077548  1.0
  Na  Na2  1  0.93715050  0.01730237  0.89511310  1.0
  Na  Na3  1  0.08707660  0.31771206  0.89157278  1.0
  Cl  Cl4  1  0.59400641  0.07889776  0.46142831  1.0
  Cl  Cl5  1  0.25361392  0.16626245  0.40790449  1.0
  Cl  Cl6  1  0.37228497  0.65061664  0.66617154  1.0
  Cl  Cl7  1  0.64796357  0.39016072  0.19136577  1.0
