# generated using pymatgen
data_NaCl
_symmetry_space_group_name_H-M   'P 1'
_cell_length_a   4.89980997
_cell_length_b   10.02890358
_cell_length_c   4.97532333
_cell_angle_alpha   90.00000000
_cell_angle_beta   90.00000000
_cell_angle_gamma   90.00000000
_symmetry_Int_Tables_number   1
_chemical_formula_structural   NaCl
_chemical_formula_sum   'Na4 Cl4'
_cell_volume   244.48600405
_cell_formula_units_Z   4
loop_
 _symmetry_equiv_pos_site_id
 _symmetry_equiv_pos_as_xyz
  1  'x, y, z'
loop_
 _atom_site_type_symbol
 _atom_site_label
 _atom_site_symmetry_multiplicity
 _atom_site_fract_x
 _atom_site_fract_y
 _atom_site_fract_z
 _atom_site_occupancy
  Na  Na0  1  0.00000000  0.05705176  0.47597806  1.0
  Na  Na1  1  0.00000000  0.38936907  0.20426273  1.0
  Na  Na2  1  0.00000000  0.70880170  0.94602863  1.0
  Na  Na3  1  0.00000000  0.87400648  0.02333539  1.0
  Cl  Cl4  1  0.00000000  0.94901604  0.30286510  1.0
  Cl  Cl5  1  0.00000000  0.15816019  0.37293351  1.0
  Cl  Cl6  1  0.00000000  0.87403422  0.37205654  1.0
  Cl  Cl7  1  0.00000000  0.68736261  0.25022590  1.0
