# generated using pymatgen
data_NaCl
_symmetry_space_group_name_H-M   'P 1'
_cell_length_a   5.49461013
_cell_length_b   13.12055772
_cell_length_c   3.13707207
_cell_angle_alpha   90.00000000
_cell_angle_beta   90.00000000
_cell_angle_gamma   90.00000000
_symmetry_Int_Tables_number   1
_chemical_formula_structural   NaCl
_chemical_formula_sum   'Na4 Cl4'
_cell_volume   226.15889564
_cell_formula_units_Z   4
loop_
 _symmetry_equiv_pos_site_id
 _symmetry_equiv_pos_as_xyz
  1  'x, y, z'
loop_
 _atom_site_type_symbol
 _atom_site_label
 _atom_site_symmetry_multiplicity
 _atom_site_fract_x
 _atom_site_fract_y
 _atom_site_fract_z
 _atom_site_occupancy
  Na  Na0  1  0.50000000  0.15733103  0.46307478  1.0
  Na  Na1  1  0.50000000  0.35631572  0.21096100  1.0
  Na  Na2  1  0.50000000  0.57476637  0.44641479  1.0
  Na  Na3  1  0.50000000  0.80953809  0.93760914  1.0
  Cl  Cl4  1  0.00000000  0.93346573  0.11993381  1.0
  Cl  Cl5  1  0.00000000  0.51867592  0.23560730  1.0
  Cl  Cl6  1  0.00000000  0.10085283  0.57860385  1.0
  Cl  Cl7  1  0.00000000  0.58926942  0.99898934  1.0
