# generated using pymatgen
data_NaCl
_symmetry_space_group_name_H-M   'P 1'
_cell_length_a   6.22528780
_cell_length_b   6.22528780
_cell_length_c   2.92165541
_cell_angle_alpha   90.00000000
_cell_angle_beta   90.00000000
_cell_angle_gamma   90.00000000
_symmetry_Int_Tables_number   1
_chemical_formula_structural   NaCl
_chemical_formula_sum   'Na4 Cl4'
_cell_volume   113.22644203
_cell_formula_units_Z   4
loop_
 _symmetry_equiv_pos_site_id
 _symmetry_equiv_pos_as_xyz
  1  'x, y, z'
loop_
 _atom_site_type_symbol
 _atom_site_label
 _atom_site_symmetry_multiplicity
 _atom_site_fract_x
 _atom_site_fract_y
 _atom_site_fract_z
 _atom_site_occupancy
  Na  Na0  1  0.03823744  0.05627371  0.28723184  1.0
  Na  Na1  1  0.28460110  0.03516958  0.62661964  1.0
  Na  Na2  1  0.72767392  0.09400787  0.58126586  1.0
  Na  Na3  1  0.76153301  0.86929305  0.91867941  1.0
  Cl  Cl4  1  0.73577554  0.76045873  0.28555224  1.0
  Cl  Cl5  1  0.30834818  0.36778276  0.86381124  1.0
  Cl  Cl6  1  0.32055747  0.71006395  0.82515408  1.0
  Cl  Cl7  1  0.76698806  0.88053405  0.40465880  1.0
