# generated using pymatgen
data_NaCl
_symmetry_space_group_name_H-M   'P 1'
_cell_length_a   7.25837707
_cell_length_b   10.99235227
_cell_length_c   3.56982299
_cell_angle_alpha   90.00000000
_cell_angle_beta   90.00000000
_cell_angle_gamma   90.00000000
_symmetry_Int_Tables_number   1
_chemical_formula_structural   NaCl
_chemical_formula_sum   'Na4 Cl4'
_cell_volume   284.82417342
_cell_formula_units_Z   4
loop_
 _symmetry_equiv_pos_site_id
 _symmetry_equiv_pos_as_xyz
  1  'x, y, z'
loop_
 _atom_site_type_symbol
 _atom_site_label
 _atom_site_symmetry_multiplicity
 _atom_site_fract_x
 _atom_site_fract_y
 _atom_site_fract_z
 _atom_site_occupancy
  Na  Na0  1  0.02301477  0.07676865  0.48043425  1.0
  Na  Na1  1  0.35103548  0.00032970  0.82342925  1.0
  Na  Na2  1  0.62088236  0.81165771  0.94941881  1.0
  Na  Na3  1  0.48311431  0.55626882  0.95463458  1.0
  Cl  Cl4  1  0.30370464  0.85411372  0.28555524  1.0
  Cl  Cl5  1  0.25778945  0.08203294  0.77847961  1.0
  Cl  Cl6  1  0.31052925  0.57375452  0.05391788  1.0
  Cl  Cl7  1  0.37928990  0.87776831  0.94409152  1.0
