# generated using pymatgen
data_NaCl
_symmetry_space_group_name_H-M   'P 1'
_cell_length_a   6.19137887
_cell_length_b   6.19137887
_cell_length_c   6.48615076
_cell_angle_alpha   90.00000000
_cell_angle_beta   90.00000000
_cell_angle_gamma   90.00000000
_symmetry_Int_Tables_number   1
_chemical_formula_structural   NaCl
_chemical_formula_sum   'Na4 Cl4'
_cell_volume   248.63473472
_cell_formula_units_Z   4
loop_
 _symmetry_equiv_pos_site_id
 _symmetry_equiv_pos_as_xyz
  1  'x, y, z'
loop_
 _atom_site_type_symbol
 _atom_site_label
 _atom_site_symmetry_multiplicity
 _atom_site_fract_x
 _atom_site_fract_y
 _atom_site_fract_z
 _atom_site_occupancy
  Na  Na0  1  0.05096345  0.09353045  0.44178640  1.0
  Na  Na1  1  0.46269053  0.33908748  0.76229306  1.0
  Na  Na2  1  0.86132831  0.18821768  0.14497522  1.0
  Na  Na3  1  0.53231270  0.63914855  0.21741141  1.0
  Cl  Cl4  1  0.40723910  0.91168008  0.23174070  1.0
  Cl  Cl5  1  0.47763591  0.18548273  0.86780637  1.0
  Cl  Cl6  1  0.51387570  0.86563541  0.31123942  1.0
  Cl  Cl7  1  0.95412954  0.92308633  0.54581286  1.0
