# generated using pymatgen
data_NaCl
_symmetry_space_group_name_H-M   'P 1'
_cell_length_a   4.77593908
_cell_length_b   11.94494341
_cell_length_c   5.87784570
_cell_angle_alpha   90.00000000
_cell_angle_beta   124.36097674
_cell_angle_gamma   90.00000000
_symmetry_Int_Tables_number   1
_chemical_formula_structural   NaCl
_chemical_formula_sum   'Na4 Cl4'
_cell_volume   276.80704090
_cell_formula_units_Z   4
loop_
 _symmetry_equiv_pos_site_id
 _symmetry_equiv_pos_as_xyz
  1  'x, y, z'
loop_
 _atom_site_type_symbol
 _atom_site_label
 _atom_site_symmetry_multiplicity
 _atom_site_fract_x
 _atom_site_fract_y
 _atom_site_fract_z
 _atom_site_occupancy
  Na  Na0  1  0.04800662  0.26576498  0.54025189  1.0
  Na  Na1  1  0.78527914  0.40026217  0.70873279  1.0
  Na  Na2  1  0.64424653  0.74839994  0.42165875  1.0
  Na  Na3  1  0.87683362  0.72022123  0.85482259  1.0
  Cl  Cl4  1  0.17947450  0.90037804  0.18617193  1.0
  Cl  Cl5  1  0.42148268  0.06317599  0.69192796  1.0
  Cl  Cl6  1  0.45498188  0.80363401  0.12315320  1.0
  Cl  Cl7  1  0.60911426  0.61971322  0.97715865  1.0
