# generated using pymatgen
data_NaCl
_symmetry_space_group_name_H-M   'P 1'
_cell_length_a   6.37943623
_cell_length_b   11.24229962
_cell_length_c   5.19259658
_cell_angle_alpha   90.00000000
_cell_angle_beta   90.00000000
_cell_angle_gamma   90.00000000
_symmetry_Int_Tables_number   1
_chemical_formula_structural   NaCl
_chemical_formula_sum   'Na4 Cl4'
_cell_volume   372.41060439
_cell_formula_units_Z   4
loop_
 _symmetry_equiv_pos_site_id
 _symmetry_equiv_pos_as_xyz
  1  'x, y, z'
loop_
 _atom_site_type_symbol
 _atom_site_label
 _atom_site_symmetry_multiplicity
 _atom_site_fract_x
 _atom_site_fract_y
 _atom_site_fract_z
 _atom_site_occupancy
  Na  Na0  1  0.07768435  0.24142713  0.55181781  1.0
  Na  Na1  1  0.88115866  0.27220054  0.78140514  1.0
  Na  Na2  1  0.69682153  0.94431147  0.93468452  1.0
  Na  Na3  1  0.40869397  0.73633680  0.92769389  1.0
  Cl  Cl4  1  0.48097621  0.82548419  0.31037301  1.0
  Cl  Cl5  1  0.35539586  0.14206700  0.82352095  1.0
  Cl  Cl6  1  0.33659140  0.36231007  0.00002458  1.0
  Cl  Cl7  1  0.44629775  0.92087321  0.05937190  1.0
