# generated using pymatgen
data_NaCl
_symmetry_space_group_name_H-M   'P 1'
_cell_length_a   13.02217337
_cell_length_b   5.79739042
_cell_length_c   3.27348765
_cell_angle_alpha   90.00000000
_cell_angle_beta   90.00000000
_cell_angle_gamma   90.00000000
_symmetry_Int_Tables_number   1
_chemical_formula_structural   NaCl
_chemical_formula_sum   'Na4 Cl4'
_cell_volume   247.13071650
_cell_formula_units_Z   4
loop_
 _symmetry_equiv_pos_site_id
 _symmetry_equiv_pos_as_xyz
  1  'x, y, z'
loop_
 _atom_site_type_symbol
 _atom_site_label
 _atom_site_symmetry_multiplicity
 _atom_site_fract_x
 _atom_site_fract_y
 _atom_site_fract_z
 _atom_site_occupancy
  Na  Na0  1  0.43267152  0.30096025  0.69169509  1.0
  Na  Na1  1  0.83819142  0.14096351  0.78470443  1.0
  Na  Na2  1  0.54365167  0.93090798  0.30227009  1.0
  Na  Na3  1  0.99974640  0.99930800  0.17017620  1.0
  Cl  Cl4  1  0.54630201  0.67666022  0.29681043  1.0
  Cl  Cl5  1  0.92532238  0.38525371  0.87319833  1.0
  Cl  Cl6  1  0.35524377  0.47751262  0.71191556  1.0
  Cl  Cl7  1  0.87911233  0.70141071  0.03490027  1.0
