# generated using pymatgen
data_NaCl
_symmetry_space_group_name_H-M   'P 1'
_cell_length_a   3.60527481
_cell_length_b   10.09047457
_cell_length_c   8.37663274
_cell_angle_alpha   90.00000000
_cell_angle_beta   78.58705444
_cell_angle_gamma   90.00000000
_symmetry_Int_Tables_number   1
_chemical_formula_structural   NaCl
_chemical_formula_sum   'Na4 Cl4'
_cell_volume   298.70732755
_cell_formula_units_Z   4
loop_
 _symmetry_equiv_pos_site_id
 _symmetry_equiv_pos_as_xyz
  1  'x, y, z'
loop_
 _atom_site_type_symbol
 _atom_site_label
 _atom_site_symmetry_multiplicity
 _atom_site_fract_x
 _atom_site_fract_y
 _atom_site_fract_z
 _atom_site_occupancy
  Na  Na0  1  0.01865444  0.26378442  0.24951315  1.0
  Na  Na1  1  0.24420761  0.40587727  0.63729501  1.0
  Na  Na2  1  0.00126340  0.61829690  0.69889614  1.0
  Na  Na3  1  0.88235714  0.92551425  0.64514038  1.0
  Cl  Cl4  1  0.51081906  0.74085820  0.37761013  1.0
  Cl  Cl5  1  0.42821860  0.13908361  0.68267826  1.0
  Cl  Cl6  1  0.49684955  0.47724978  0.02827866  1.0
  Cl  Cl7  1  0.86531228  0.20920585  0.66127830  1.0
