# generated using pymatgen
data_NaCl
_symmetry_space_group_name_H-M   'P 1'
_cell_length_a   7.88057057
_cell_length_b   8.61536038
_cell_length_c   3.17871677
_cell_angle_alpha   90.00000000
_cell_angle_beta   90.00000000
_cell_angle_gamma   90.00000000
_symmetry_Int_Tables_number   1
_chemical_formula_structural   NaCl
_chemical_formula_sum   'Na4 Cl4'
_cell_volume   215.81565480
_cell_formula_units_Z   4
loop_
 _symmetry_equiv_pos_site_id
 _symmetry_equiv_pos_as_xyz
  1  'x, y, z'
loop_
 _atom_site_type_symbol
 _atom_site_label
 _atom_site_symmetry_multiplicity
 _atom_site_fract_x
 _atom_site_fract_y
 _atom_site_fract_z
 _atom_site_occupancy
  Na  Na0  1  0.25000000  0.06986821  0.44352671  1.0
  Na  Na1  1  0.75000000  0.34480041  0.23671834  1.0
  Na  Na2  1  0.75000000  0.61935047  0.77139684  1.0
  Na  Na3  1  0.25000000  0.85596996  0.80968943  1.0
  Cl  Cl4  1  0.25000000  0.87854804  0.17661565  1.0
  Cl  Cl5  1  0.75000000  0.07988444  0.24995937  1.0
  Cl  Cl6  1  0.75000000  0.01602096  0.50043347  1.0
  Cl  Cl7  1  0.25000000  0.66803974  0.01115514  1.0
