# generated using pymatgen
data_NaCl
_symmetry_space_group_name_H-M   'P 1'
_cell_length_a   5.85045695
_cell_length_b   10.07801072
_cell_length_c   4.77919459
_cell_angle_alpha   90.00000000
_cell_angle_beta   92.47853586
_cell_angle_gamma   90.00000000
_symmetry_Int_Tables_number   1
_chemical_formula_structural   NaCl
_chemical_formula_sum   'Na4 Cl4'
_cell_volume   281.52232566
_cell_formula_units_Z   4
loop_
 _symmetry_equiv_pos_site_id
 _symmetry_equiv_pos_as_xyz
  1  'x, y, z'
loop_
 _atom_site_type_symbol
 _atom_site_label
 _atom_site_symmetry_multiplicity
 _atom_site_fract_x
 _atom_site_fract_y
 _atom_site_fract_z
 _atom_site_occupancy
  Na  Na0  1  0.15299272  0.10002377  0.51010788  1.0
  Na  Na1  1  0.54187376  0.20420160  0.92901506  1.0
  Na  Na2  1  0.14773840  0.14409360  0.92674427  1.0
  Na  Na3  1  0.16259428  0.49831275  0.00439063  1.0
  Cl  Cl4  1  0.37487519  0.73752361  0.10862228  1.0
  Cl  Cl5  1  0.60676832  0.15689145  0.71995519  1.0
  Cl  Cl6  1  0.69213064  0.74075445  0.05370360  1.0
  Cl  Cl7  1  0.08379153  0.55010077  0.27487608  1.0
