# generated using pymatgen
data_NaCl
_symmetry_space_group_name_H-M   'P 1'
_cell_length_a   5.83179292
_cell_length_b   9.61745639
_cell_length_c   5.90303478
_cell_angle_alpha   90.00000000
_cell_angle_beta   90.00000000
_cell_angle_gamma   90.00000000
_symmetry_Int_Tables_number   1
_chemical_formula_structural   NaCl
_chemical_formula_sum   'Na4 Cl4'
_cell_volume   331.08359484
_cell_formula_units_Z   4
loop_
 _symmetry_equiv_pos_site_id
 _symmetry_equiv_pos_as_xyz
  1  'x, y, z'
loop_
 _atom_site_type_symbol
 _atom_site_label
 _atom_site_symmetry_multiplicity
 _atom_site_fract_x
 _atom_site_fract_y
 _atom_site_fract_z
 _atom_site_occupancy
  Na  Na0  1  0.07351897  0.03875773  0.47081918  1.0
  Na  Na1  1  0.43456665  0.32536484  0.72114452  1.0
  Na  Na2  1  0.20134519  0.76028472  0.76536322  1.0
  Na  Na3  1  0.52918166  0.59768148  0.28328324  1.0
  Cl  Cl4  1  0.00000000  0.89109225  0.23020667  1.0
  Cl  Cl5  1  0.00000000  0.09017695  0.90402445  1.0
  Cl  Cl6  1  0.00000000  0.33877945  0.08906091  1.0
  Cl  Cl7  1  0.00000000  0.12627043  0.37468306  1.0
