# generated using pymatgen
data_NaCl
_symmetry_space_group_name_H-M   'P 1'
_cell_length_a   3.22337724
_cell_length_b   6.63920554
_cell_length_c   7.60280424
_cell_angle_alpha   90.00000000
_cell_angle_beta   90.00000000
_cell_angle_gamma   90.00000000
_symmetry_Int_Tables_number   1
_chemical_formula_structural   NaCl
_chemical_formula_sum   'Na4 Cl4'
_cell_volume   162.70505922
_cell_formula_units_Z   4
loop_
 _symmetry_equiv_pos_site_id
 _symmetry_equiv_pos_as_xyz
  1  'x, y, z'
loop_
 _atom_site_type_symbol
 _atom_site_label
 _atom_site_symmetry_multiplicity
 _atom_site_fract_x
 _atom_site_fract_y
 _atom_site_fract_z
 _atom_site_occupancy
  Na  Na0  1  0.27694288  0.13738160  0.49475081  1.0
  Na  Na1  1  0.30984441  0.10516674  0.19862130  1.0
  Na  Na2  1  0.12257790  0.22305673  0.06000628  1.0
  Na  Na3  1  0.91341539  0.78327553  0.97266226  1.0
  Cl  Cl4  1  0.70894617  0.52505548  0.00077804  1.0
  Cl  Cl5  1  0.56264026  0.42968749  0.27139841  1.0
  Cl  Cl6  1  0.48078873  0.66795180  0.50140242  1.0
  Cl  Cl7  1  0.95191160  0.07387078  0.67371060  1.0
