# generated using pymatgen
data_NaCl
_symmetry_space_group_name_H-M   'P 1'
_cell_length_a   7.86413206
_cell_length_b   7.86413206
_cell_length_c   2.02268844
_cell_angle_alpha   90.00000000
_cell_angle_beta   90.00000000
_cell_angle_gamma   90.00000000
_symmetry_Int_Tables_number   1
_chemical_formula_structural   NaCl
_chemical_formula_sum   'Na4 Cl4'
_cell_volume   125.09230300
_cell_formula_units_Z   4
loop_
 _symmetry_equiv_pos_site_id
 _symmetry_equiv_pos_as_xyz
  1  'x, y, z'
loop_
 _atom_site_type_symbol
 _atom_site_label
 _atom_site_symmetry_multiplicity
 _atom_site_fract_x
 _atom_site_fract_y
 _atom_site_fract_z
 _atom_site_occupancy
  Na  Na0  1  0.11067033  0.02021700  0.41109057  1.0
  Na  Na1  1  0.35541745  0.16295683  0.85883998  1.0
  Na  Na2  1  0.72105864  0.61253900  0.15556139  1.0
  Na  Na3  1  0.87346312  0.86060750  0.34351851  1.0
  Cl  Cl4  1  0.39240160  0.78887480  0.25189740  1.0
  Cl  Cl5  1  0.19100360  0.21895014  0.02841891  1.0
  Cl  Cl6  1  0.65177404  0.81428845  0.30890445  1.0
  Cl  Cl7  1  0.47526107  0.89519836  0.28361937  1.0
