# generated using pymatgen
data_NaCl
_symmetry_space_group_name_H-M   'P 1'
_cell_length_a   4.83038714
_cell_length_b   3.37424313
_cell_length_c   20.08417471
_cell_angle_alpha   128.47800111
_cell_angle_beta   74.90270300
_cell_angle_gamma   117.20054634
_symmetry_Int_Tables_number   1
_chemical_formula_structural   NaCl
_chemical_formula_sum   'Na4 Cl4'
_cell_volume   227.79016962
_cell_formula_units_Z   4
loop_
 _symmetry_equiv_pos_site_id
 _symmetry_equiv_pos_as_xyz
  1  'x, y, z'
loop_
 _atom_site_type_symbol
 _atom_site_label
 _atom_site_symmetry_multiplicity
 _atom_site_fract_x
 _atom_site_fract_y
 _atom_site_fract_z
 _atom_site_occupancy
  Na  Na0  1  0.00000000  0.50000000  0.00000000  1.0
  Na  Na1  1  0.00000000  0.50000000  0.50000000  1.0
  Na  Na2  1  0.02335644  0.28087550  0.28143471  1.0
  Na  Na3  1  0.93065776  0.08719516  0.67002180  1.0
  Cl  Cl4  1  0.00000000  0.00000000  0.00000000  1.0
  Cl  Cl5  1  0.50000000  0.00000000  0.00000000  1.0
  Cl  Cl6  1  0.80168975  0.52535304  0.05181198  1.0
  Cl  Cl7  1  0.72153896  0.16817209  0.47715620  1.0
