# generated using pymatgen
data_NaCl
_symmetry_space_group_name_H-M   'P 1'
_cell_length_a   5.96964991
_cell_length_b   5.96964991
_cell_length_c   4.90405778
_cell_angle_alpha   90.00000000
_cell_angle_beta   90.00000000
_cell_angle_gamma   90.00000000
_symmetry_Int_Tables_number   1
_chemical_formula_structural   NaCl
_chemical_formula_sum   'Na4 Cl4'
_cell_volume   174.76453420
_cell_formula_units_Z   4
loop_
 _symmetry_equiv_pos_site_id
 _symmetry_equiv_pos_as_xyz
  1  'x, y, z'
loop_
 _atom_site_type_symbol
 _atom_site_label
 _atom_site_symmetry_multiplicity
 _atom_site_fract_x
 _atom_site_fract_y
 _atom_site_fract_z
 _atom_site_occupancy
  Na  Na0  1  0.01679060  0.02070168  0.45476868  1.0
  Na  Na1  1  0.42338457  0.32341913  0.71979535  1.0
  Na  Na2  1  0.65424638  0.21062078  0.99475585  1.0
  Na  Na3  1  0.59252305  0.53209940  0.52566297  1.0
  Cl  Cl4  1  0.23752622  0.91133422  0.20618779  1.0
  Cl  Cl5  1  0.51168556  0.16202490  0.80205905  1.0
  Cl  Cl6  1  0.57034413  0.85310514  0.80678477  1.0
  Cl  Cl7  1  0.98841786  0.92544792  0.99840471  1.0
