# generated using pymatgen
data_NaCl
_symmetry_space_group_name_H-M   'P 1'
_cell_length_a   4.57265319
_cell_length_b   10.60041396
_cell_length_c   6.92468099
_cell_angle_alpha   90.00000000
_cell_angle_beta   125.16044088
_cell_angle_gamma   90.00000000
_symmetry_Int_Tables_number   1
_chemical_formula_structural   NaCl
_chemical_formula_sum   'Na4 Cl4'
_cell_volume   274.41086432
_cell_formula_units_Z   4
loop_
 _symmetry_equiv_pos_site_id
 _symmetry_equiv_pos_as_xyz
  1  'x, y, z'
loop_
 _atom_site_type_symbol
 _atom_site_label
 _atom_site_symmetry_multiplicity
 _atom_site_fract_x
 _atom_site_fract_y
 _atom_site_fract_z
 _atom_site_occupancy
  Na  Na0  1  0.01610930  0.24402222  0.47699694  1.0
  Na  Na1  1  0.68264296  0.91290398  0.79217081  1.0
  Na  Na2  1  0.63078529  0.67746428  0.45816384  1.0
  Na  Na3  1  0.66212466  0.75802402  0.87220106  1.0
  Cl  Cl4  1  0.30586138  0.93678481  0.20745173  1.0
  Cl  Cl5  1  0.39553920  0.55079218  0.95381846  1.0
  Cl  Cl6  1  0.34690717  0.04948915  0.06318864  1.0
  Cl  Cl7  1  0.59211378  0.66223448  0.88697597  1.0
