# generated using pymatgen
data_NaCl
_symmetry_space_group_name_H-M   'P 1'
_cell_length_a   5.62095725
_cell_length_b   6.97369982
_cell_length_c   5.71158251
_cell_angle_alpha   90.00000000
_cell_angle_beta   90.00000000
_cell_angle_gamma   90.00000000
_symmetry_Int_Tables_number   1
_chemical_formula_structural   NaCl
_chemical_formula_sum   'Na4 Cl4'
_cell_volume   223.88757209
_cell_formula_units_Z   4
loop_
 _symmetry_equiv_pos_site_id
 _symmetry_equiv_pos_as_xyz
  1  'x, y, z'
loop_
 _atom_site_type_symbol
 _atom_site_label
 _atom_site_symmetry_multiplicity
 _atom_site_fract_x
 _atom_site_fract_y
 _atom_site_fract_z
 _atom_site_occupancy
  Na  Na0  1  0.09135401  0.25380497  0.42588307  1.0
  Na  Na1  1  0.47852743  0.29343638  0.70541718  1.0
  Na  Na2  1  0.57666924  0.20808178  0.39165095  1.0
  Na  Na3  1  0.37367471  0.17651962  0.87769911  1.0
  Cl  Cl4  1  0.28705802  0.73818053  0.21580705  1.0
  Cl  Cl5  1  0.33752457  0.04154492  0.79052123  1.0
  Cl  Cl6  1  0.29266491  0.65788873  0.03090080  1.0
  Cl  Cl7  1  0.35037273  0.86744693  0.99679711  1.0
