# generated using pymatgen
data_NaCl
_symmetry_space_group_name_H-M   'P 1'
_cell_length_a   6.40827690
_cell_length_b   9.53798964
_cell_length_c   5.39399742
_cell_angle_alpha   90.00000000
_cell_angle_beta   90.00000000
_cell_angle_gamma   90.00000000
_symmetry_Int_Tables_number   1
_chemical_formula_structural   NaCl
_chemical_formula_sum   'Na4 Cl4'
_cell_volume   329.69233472
_cell_formula_units_Z   4
loop_
 _symmetry_equiv_pos_site_id
 _symmetry_equiv_pos_as_xyz
  1  'x, y, z'
loop_
 _atom_site_type_symbol
 _atom_site_label
 _atom_site_symmetry_multiplicity
 _atom_site_fract_x
 _atom_site_fract_y
 _atom_site_fract_z
 _atom_site_occupancy
  Na  Na0  1  0.09456728  0.08719513  0.25000000  1.0
  Na  Na1  1  0.42159559  0.34125202  0.75000000  1.0
  Na  Na2  1  0.75344577  0.69851508  0.25000000  1.0
  Na  Na3  1  0.43989999  0.92450580  0.75000000  1.0
  Cl  Cl4  1  0.41547950  0.25000000  0.00000000  1.0
  Cl  Cl5  1  0.33280102  0.75000000  0.50000000  1.0
  Cl  Cl6  1  0.14711297  0.75000000  0.00000000  1.0
  Cl  Cl7  1  0.11266961  0.25000000  0.50000000  1.0
