# generated using pymatgen
data_NaCl
_symmetry_space_group_name_H-M   'P 1'
_cell_length_a   3.83023929
_cell_length_b   3.83023929
_cell_length_c   7.33576248
_cell_angle_alpha   90.00000000
_cell_angle_beta   90.00000000
_cell_angle_gamma   90.00000000
_symmetry_Int_Tables_number   1
_chemical_formula_structural   NaCl
_chemical_formula_sum   'Na4 Cl4'
_cell_volume   107.62101283
_cell_formula_units_Z   4
loop_
 _symmetry_equiv_pos_site_id
 _symmetry_equiv_pos_as_xyz
  1  'x, y, z'
loop_
 _atom_site_type_symbol
 _atom_site_label
 _atom_site_symmetry_multiplicity
 _atom_site_fract_x
 _atom_site_fract_y
 _atom_site_fract_z
 _atom_site_occupancy
  Na  Na0  1  0.00000000  0.00000000  0.64662955  1.0
  Na  Na1  1  0.00000000  0.00000000  0.84738369  1.0
  Na  Na2  1  0.00000000  0.50000000  0.99844721  1.0
  Na  Na3  1  0.50000000  0.00000000  0.11992204  1.0
  Cl  Cl4  1  0.32359887  0.50000000  0.37524864  1.0
  Cl  Cl5  1  0.55868049  0.50000000  0.50862415  1.0
  Cl  Cl6  1  0.50000000  0.35863339  0.02180539  1.0
  Cl  Cl7  1  0.50000000  0.77870006  0.94389424  1.0
