# generated using pymatgen
data_NaCl
_symmetry_space_group_name_H-M   'P 1'
_cell_length_a   5.07204780
_cell_length_b   10.15847824
_cell_length_c   2.92775190
_cell_angle_alpha   90.00000000
_cell_angle_beta   90.00000000
_cell_angle_gamma   90.00000000
_symmetry_Int_Tables_number   1
_chemical_formula_structural   NaCl
_chemical_formula_sum   'Na4 Cl4'
_cell_volume   150.85032977
_cell_formula_units_Z   4
loop_
 _symmetry_equiv_pos_site_id
 _symmetry_equiv_pos_as_xyz
  1  'x, y, z'
loop_
 _atom_site_type_symbol
 _atom_site_label
 _atom_site_symmetry_multiplicity
 _atom_site_fract_x
 _atom_site_fract_y
 _atom_site_fract_z
 _atom_site_occupancy
  Na  Na0  1  0.08623330  0.10128434  0.36337464  1.0
  Na  Na1  1  0.27616180  0.01536930  0.09574544  1.0
  Na  Na2  1  0.36299787  0.78303362  0.05317485  1.0
  Na  Na3  1  0.56827021  0.61646730  0.39610101  1.0
  Cl  Cl4  1  0.00000000  0.00000000  0.23215488  1.0
  Cl  Cl5  1  0.50000000  0.50000000  0.59274481  1.0
  Cl  Cl6  1  0.00000000  0.50000000  0.06949353  1.0
  Cl  Cl7  1  0.50000000  0.00000000  0.96845300  1.0
