# generated using pymatgen
data_NaCl
_symmetry_space_group_name_H-M   'P 1'
_cell_length_a   8.34059463
_cell_length_b   7.38250090
_cell_length_c   3.60359194
_cell_angle_alpha   90.00000000
_cell_angle_beta   126.66001830
_cell_angle_gamma   90.00000000
_symmetry_Int_Tables_number   1
_chemical_formula_structural   NaCl
_chemical_formula_sum   'Na4 Cl4'
_cell_volume   177.99783319
_cell_formula_units_Z   4
loop_
 _symmetry_equiv_pos_site_id
 _symmetry_equiv_pos_as_xyz
  1  'x, y, z'
loop_
 _atom_site_type_symbol
 _atom_site_label
 _atom_site_symmetry_multiplicity
 _atom_site_fract_x
 _atom_site_fract_y
 _atom_site_fract_z
 _atom_site_occupancy
  Na  Na0  1  0.05916004  0.18752800  0.46694643  1.0
  Na  Na1  1  0.70718709  0.33771206  0.29126018  1.0
  Na  Na2  1  0.58249476  0.69708589  0.52219922  1.0
  Na  Na3  1  0.53506581  0.98623882  0.63480547  1.0
  Cl  Cl4  1  0.34301948  0.74766357  0.25995637  1.0
  Cl  Cl5  1  0.62447405  0.44980790  0.40109924  1.0
  Cl  Cl6  1  0.22045137  0.16857708  0.03125284  1.0
  Cl  Cl7  1  0.63921710  0.93435218  0.39674037  1.0
