# generated using pymatgen
data_NaCl
_symmetry_space_group_name_H-M   'P 1'
_cell_length_a   3.74138170
_cell_length_b   5.72595884
_cell_length_c   6.64270684
_cell_angle_alpha   90.00000000
_cell_angle_beta   110.41590170
_cell_angle_gamma   90.00000000
_symmetry_Int_Tables_number   1
_chemical_formula_structural   NaCl
_chemical_formula_sum   'Na4 Cl4'
_cell_volume   133.36772804
_cell_formula_units_Z   4
loop_
 _symmetry_equiv_pos_site_id
 _symmetry_equiv_pos_as_xyz
  1  'x, y, z'
loop_
 _atom_site_type_symbol
 _atom_site_label
 _atom_site_symmetry_multiplicity
 _atom_site_fract_x
 _atom_site_fract_y
 _atom_site_fract_z
 _atom_site_occupancy
  Na  Na0  1  0.19003222  0.15621091  0.59665578  1.0
  Na  Na1  1  0.31880856  0.59379474  0.70432509  1.0
  Na  Na2  1  0.62843663  0.64292782  0.55246494  1.0
  Na  Na3  1  0.45930554  0.10701909  0.44226835  1.0
  Cl  Cl4  1  0.31348398  0.40077486  0.17283249  1.0
  Cl  Cl5  1  0.47917311  0.72656966  0.65272938  1.0
  Cl  Cl6  1  0.40191510  0.19587319  0.14352477  1.0
  Cl  Cl7  1  0.46961997  0.33161837  0.44127447  1.0
