# generated using pymatgen
data_NaCl
_symmetry_space_group_name_H-M   'P 1'
_cell_length_a   6.96115475
_cell_length_b   6.96115475
_cell_length_c   6.52577398
_cell_angle_alpha   90.00000000
_cell_angle_beta   90.00000000
_cell_angle_gamma   90.00000000
_symmetry_Int_Tables_number   1
_chemical_formula_structural   NaCl
_chemical_formula_sum   'Na4 Cl4'
_cell_volume   316.22383761
_cell_formula_units_Z   4
loop_
 _symmetry_equiv_pos_site_id
 _symmetry_equiv_pos_as_xyz
  1  'x, y, z'
loop_
 _atom_site_type_symbol
 _atom_site_label
 _atom_site_symmetry_multiplicity
 _atom_site_fract_x
 _atom_site_fract_y
 _atom_site_fract_z
 _atom_site_occupancy
  Na  Na0  1  0.51878943  0.09702043  0.43693641  1.0
  Na  Na1  1  0.44083639  0.26312553  0.94179675  1.0
  Na  Na2  1  0.77678577  0.06038907  0.78639454  1.0
  Na  Na3  1  0.59177955  0.99974855  0.23032437  1.0
  Cl  Cl4  1  0.48123224  0.82080504  0.12993380  1.0
  Cl  Cl5  1  0.29152283  0.03738568  0.86498129  1.0
  Cl  Cl6  1  0.36995746  0.97968651  0.34143033  1.0
  Cl  Cl7  1  0.79956243  0.91304015  0.28409566  1.0
