# generated using pymatgen
data_NaCl
_symmetry_space_group_name_H-M   'P 1'
_cell_length_a   6.77701631
_cell_length_b   15.17191088
_cell_length_c   3.44444711
_cell_angle_alpha   90.00000000
_cell_angle_beta   90.00000000
_cell_angle_gamma   90.00000000
_symmetry_Int_Tables_number   1
_chemical_formula_structural   NaCl
_chemical_formula_sum   'Na4 Cl4'
_cell_volume   354.15904209
_cell_formula_units_Z   4
loop_
 _symmetry_equiv_pos_site_id
 _symmetry_equiv_pos_as_xyz
  1  'x, y, z'
loop_
 _atom_site_type_symbol
 _atom_site_label
 _atom_site_symmetry_multiplicity
 _atom_site_fract_x
 _atom_site_fract_y
 _atom_site_fract_z
 _atom_site_occupancy
  Na  Na0  1  0.04783111  0.22776470  0.36376931  1.0
  Na  Na1  1  0.29856401  0.30589751  0.81487704  1.0
  Na  Na2  1  0.05479709  0.79137581  0.78557822  1.0
  Na  Na3  1  0.49242490  0.99795950  0.43685429  1.0
  Cl  Cl4  1  0.19735682  0.83279964  0.26016797  1.0
  Cl  Cl5  1  0.44068914  0.27591124  0.68770553  1.0
  Cl  Cl6  1  0.72937329  0.67384984  0.53080642  1.0
  Cl  Cl7  1  0.84665783  0.99854075  0.67259442  1.0
