# generated using pymatgen
data_NaCl
_symmetry_space_group_name_H-M   'P 1'
_cell_length_a   4.96798742
_cell_length_b   9.08739479
_cell_length_c   7.21737300
_cell_angle_alpha   90.00000000
_cell_angle_beta   90.00000000
_cell_angle_gamma   90.00000000
_symmetry_Int_Tables_number   1
_chemical_formula_structural   NaCl
_chemical_formula_sum   'Na4 Cl4'
_cell_volume   325.83597613
_cell_formula_units_Z   4
loop_
 _symmetry_equiv_pos_site_id
 _symmetry_equiv_pos_as_xyz
  1  'x, y, z'
loop_
 _atom_site_type_symbol
 _atom_site_label
 _atom_site_symmetry_multiplicity
 _atom_site_fract_x
 _atom_site_fract_y
 _atom_site_fract_z
 _atom_site_occupancy
  Na  Na0  1  0.00000000  0.03306543  0.48221142  1.0
  Na  Na1  1  0.00000000  0.33530901  0.67022045  1.0
  Na  Na2  1  0.50000000  0.80311325  0.20674779  1.0
  Na  Na3  1  0.50000000  0.94024713  0.75119712  1.0
  Cl  Cl4  1  0.00000000  0.89864296  0.21442186  1.0
  Cl  Cl5  1  0.00000000  0.15754661  0.79362386  1.0
  Cl  Cl6  1  0.50000000  0.83794036  0.00081550  1.0
  Cl  Cl7  1  0.50000000  0.53967220  0.25100680  1.0
