# generated using pymatgen
data_NaCl
_symmetry_space_group_name_H-M   'P 1'
_cell_length_a   4.37898244
_cell_length_b   8.72425947
_cell_length_c   7.09036964
_cell_angle_alpha   90.00000000
_cell_angle_beta   90.00000000
_cell_angle_gamma   90.00000000
_symmetry_Int_Tables_number   1
_chemical_formula_structural   NaCl
_chemical_formula_sum   'Na4 Cl4'
_cell_volume   270.87607876
_cell_formula_units_Z   4
loop_
 _symmetry_equiv_pos_site_id
 _symmetry_equiv_pos_as_xyz
  1  'x, y, z'
loop_
 _atom_site_type_symbol
 _atom_site_label
 _atom_site_symmetry_multiplicity
 _atom_site_fract_x
 _atom_site_fract_y
 _atom_site_fract_z
 _atom_site_occupancy
  Na  Na0  1  0.57372628  0.03337330  0.37503187  1.0
  Na  Na1  1  0.93661050  0.33956055  0.68889275  1.0
  Na  Na2  1  0.91234624  0.80724492  0.20567905  1.0
  Na  Na3  1  0.93231042  0.95657322  0.73316654  1.0
  Cl  Cl4  1  0.99575563  0.59891180  0.21380940  1.0
  Cl  Cl5  1  0.80894017  0.12879501  0.87250173  1.0
  Cl  Cl6  1  0.11315723  0.90913325  0.44899336  1.0
  Cl  Cl7  1  0.57688962  0.60770532  0.20220384  1.0
