# generated using pymatgen
data_NaCl
_symmetry_space_group_name_H-M   'P 1'
_cell_length_a   7.50100091
_cell_length_b   8.44487503
_cell_length_c   5.10956181
_cell_angle_alpha   90.00000000
_cell_angle_beta   143.51177353
_cell_angle_gamma   90.00000000
_symmetry_Int_Tables_number   1
_chemical_formula_structural   NaCl
_chemical_formula_sum   'Na4 Cl4'
_cell_volume   192.47001069
_cell_formula_units_Z   4
loop_
 _symmetry_equiv_pos_site_id
 _symmetry_equiv_pos_as_xyz
  1  'x, y, z'
loop_
 _atom_site_type_symbol
 _atom_site_label
 _atom_site_symmetry_multiplicity
 _atom_site_fract_x
 _atom_site_fract_y
 _atom_site_fract_z
 _atom_site_occupancy
  Na  Na0  1  0.11783210  0.06659352  0.32518634  1.0
  Na  Na1  1  0.73987017  0.19011765  0.55747847  1.0
  Na  Na2  1  0.92730185  0.79860712  0.60632339  1.0
  Na  Na3  1  0.37539266  0.97603168  0.54554084  1.0
  Cl  Cl4  1  0.33986271  0.25000000  0.37063548  1.0
  Cl  Cl5  1  0.40514222  0.75000000  0.88807125  1.0
  Cl  Cl6  1  0.84569251  0.25000000  0.01956167  1.0
  Cl  Cl7  1  0.94472694  0.75000000  0.12506764  1.0
