# generated using pymatgen
data_NaCl
_symmetry_space_group_name_H-M   'P 1'
_cell_length_a   7.28157590
_cell_length_b   5.20090676
_cell_length_c   9.53430523
_cell_angle_alpha   90.00000000
_cell_angle_beta   90.00000000
_cell_angle_gamma   90.00000000
_symmetry_Int_Tables_number   1
_chemical_formula_structural   NaCl
_chemical_formula_sum   'Na4 Cl4'
_cell_volume   361.07174097
_cell_formula_units_Z   4
loop_
 _symmetry_equiv_pos_site_id
 _symmetry_equiv_pos_as_xyz
  1  'x, y, z'
loop_
 _atom_site_type_symbol
 _atom_site_label
 _atom_site_symmetry_multiplicity
 _atom_site_fract_x
 _atom_site_fract_y
 _atom_site_fract_z
 _atom_site_occupancy
  Na  Na0  1  0.00031829  0.86838116  0.48202099  1.0
  Na  Na1  1  0.41039604  0.13859702  0.24944655  1.0
  Na  Na2  1  0.67659374  0.17194492  0.40159395  1.0
  Na  Na3  1  0.36825181  0.37457300  0.98400312  1.0
  Cl  Cl4  1  0.36269715  0.40302767  0.17398830  1.0
  Cl  Cl5  1  0.24448597  0.48304002  0.46772691  1.0
  Cl  Cl6  1  0.12559470  0.88327653  0.60229615  1.0
  Cl  Cl7  1  0.38671887  0.91788099  0.68031569  1.0
