# generated using pymatgen
data_NaCl
_symmetry_space_group_name_H-M   'P 1'
_cell_length_a   8.69798586
_cell_length_b   8.69798586
_cell_length_c   4.36508904
_cell_angle_alpha   90.00000000
_cell_angle_beta   90.00000000
_cell_angle_gamma   90.00000000
_symmetry_Int_Tables_number   1
_chemical_formula_structural   NaCl
_chemical_formula_sum   'Na4 Cl4'
_cell_volume   330.24062808
_cell_formula_units_Z   4
loop_
 _symmetry_equiv_pos_site_id
 _symmetry_equiv_pos_as_xyz
  1  'x, y, z'
loop_
 _atom_site_type_symbol
 _atom_site_label
 _atom_site_symmetry_multiplicity
 _atom_site_fract_x
 _atom_site_fract_y
 _atom_site_fract_z
 _atom_site_occupancy
  Na  Na0  1  0.04845782  0.19567214  0.31976584  1.0
  Na  Na1  1  0.68029365  0.31125955  0.20135313  1.0
  Na  Na2  1  0.29950445  0.80389555  0.72355389  1.0
  Na  Na3  1  0.36657523  0.52231305  0.65798744  1.0
  Cl  Cl4  1  0.00000000  0.00000000  0.50000000  1.0
  Cl  Cl5  1  0.00000000  0.00000000  0.29741507  1.0
  Cl  Cl6  1  0.00000000  0.00000000  0.99927817  1.0
  Cl  Cl7  1  0.50000000  0.50000000  0.00000000  1.0
