# generated using pymatgen
data_NaCl
_symmetry_space_group_name_H-M   'P 1'
_cell_length_a   7.21927801
_cell_length_b   4.21224636
_cell_length_c   5.86465607
_cell_angle_alpha   90.00000000
_cell_angle_beta   90.00000000
_cell_angle_gamma   90.00000000
_symmetry_Int_Tables_number   1
_chemical_formula_structural   NaCl
_chemical_formula_sum   'Na4 Cl4'
_cell_volume   178.34054045
_cell_formula_units_Z   4
loop_
 _symmetry_equiv_pos_site_id
 _symmetry_equiv_pos_as_xyz
  1  'x, y, z'
loop_
 _atom_site_type_symbol
 _atom_site_label
 _atom_site_symmetry_multiplicity
 _atom_site_fract_x
 _atom_site_fract_y
 _atom_site_fract_z
 _atom_site_occupancy
  Na  Na0  1  0.25807501  0.00000000  0.64839325  1.0
  Na  Na1  1  0.40266900  0.00000000  0.30356690  1.0
  Na  Na2  1  0.52558841  0.50000000  0.16580073  1.0
  Na  Na3  1  0.33233685  0.50000000  0.15191860  1.0
  Cl  Cl4  1  0.00000000  0.50000000  0.30314440  1.0
  Cl  Cl5  1  0.50000000  0.00000000  0.90657958  1.0
  Cl  Cl6  1  0.00000000  0.50000000  0.14905731  1.0
  Cl  Cl7  1  0.50000000  0.00000000  0.65447903  1.0
