# generated using pymatgen
data_NaCl
_symmetry_space_group_name_H-M   'P 1'
_cell_length_a   6.48126211
_cell_length_b   9.90546375
_cell_length_c   5.36675346
_cell_angle_alpha   90.00000000
_cell_angle_beta   90.00000000
_cell_angle_gamma   90.00000000
_symmetry_Int_Tables_number   1
_chemical_formula_structural   NaCl
_chemical_formula_sum   'Na4 Cl4'
_cell_volume   344.54507241
_cell_formula_units_Z   4
loop_
 _symmetry_equiv_pos_site_id
 _symmetry_equiv_pos_as_xyz
  1  'x, y, z'
loop_
 _atom_site_type_symbol
 _atom_site_label
 _atom_site_symmetry_multiplicity
 _atom_site_fract_x
 _atom_site_fract_y
 _atom_site_fract_z
 _atom_site_occupancy
  Na  Na0  1  0.25000000  0.24902533  0.42679546  1.0
  Na  Na1  1  0.75000000  0.39041339  0.17074890  1.0
  Na  Na2  1  0.25000000  0.71147058  0.86317329  1.0
  Na  Na3  1  0.75000000  0.96240981  0.81153824  1.0
  Cl  Cl4  1  0.25000000  0.52384032  0.52075499  1.0
  Cl  Cl5  1  0.75000000  0.27067754  0.27417581  1.0
  Cl  Cl6  1  0.25000000  0.82173813  0.53513174  1.0
  Cl  Cl7  1  0.75000000  0.71903697  0.45343464  1.0
