# generated using pymatgen
data_NaCl
_symmetry_space_group_name_H-M   'P 1'
_cell_length_a   4.44097925
_cell_length_b   9.19596403
_cell_length_c   4.81755533
_cell_angle_alpha   90.00000000
_cell_angle_beta   123.63855910
_cell_angle_gamma   90.00000000
_symmetry_Int_Tables_number   1
_chemical_formula_structural   NaCl
_chemical_formula_sum   'Na4 Cl4'
_cell_volume   163.79940845
_cell_formula_units_Z   4
loop_
 _symmetry_equiv_pos_site_id
 _symmetry_equiv_pos_as_xyz
  1  'x, y, z'
loop_
 _atom_site_type_symbol
 _atom_site_label
 _atom_site_symmetry_multiplicity
 _atom_site_fract_x
 _atom_site_fract_y
 _atom_site_fract_z
 _atom_site_occupancy
  Na  Na0  1  0.32181907  0.50000000  0.50936414  1.0
  Na  Na1  1  0.44457524  0.50000000  0.01956417  1.0
  Na  Na2  1  0.00399475  0.48533945  0.97696277  1.0
  Na  Na3  1  0.03327798  0.37159058  0.32076582  1.0
  Cl  Cl4  1  0.46669983  0.00000000  0.34688980  1.0
  Cl  Cl5  1  0.78570592  0.50000000  0.58138673  1.0
  Cl  Cl6  1  0.46383159  0.75583152  0.33439071  1.0
  Cl  Cl7  1  0.80010898  0.27343139  0.21493821  1.0
