# generated using pymatgen
data_NaCl
_symmetry_space_group_name_H-M   'P 1'
_cell_length_a   10.46738596
_cell_length_b   8.45930810
_cell_length_c   2.57729210
_cell_angle_alpha   90.00000000
_cell_angle_beta   90.00000000
_cell_angle_gamma   90.00000000
_symmetry_Int_Tables_number   1
_chemical_formula_structural   NaCl
_chemical_formula_sum   'Na4 Cl4'
_cell_volume   228.21107852
_cell_formula_units_Z   4
loop_
 _symmetry_equiv_pos_site_id
 _symmetry_equiv_pos_as_xyz
  1  'x, y, z'
loop_
 _atom_site_type_symbol
 _atom_site_label
 _atom_site_symmetry_multiplicity
 _atom_site_fract_x
 _atom_site_fract_y
 _atom_site_fract_z
 _atom_site_occupancy
  Na  Na0  1  0.01784859  0.23931561  0.67327239  1.0
  Na  Na1  1  0.43419840  0.21052977  0.15687728  1.0
  Na  Na2  1  0.73822102  0.98735317  0.45465396  1.0
  Na  Na3  1  0.31351791  0.28114105  0.01846860  1.0
  Cl  Cl4  1  0.00000000  0.00000000  0.02102235  1.0
  Cl  Cl5  1  0.50000000  0.50000000  0.87862071  1.0
  Cl  Cl6  1  0.00000000  0.50000000  0.18533895  1.0
  Cl  Cl7  1  0.50000000  0.00000000  0.62560977  1.0
