# generated using pymatgen
data_NaCl
_symmetry_space_group_name_H-M   'P 1'
_cell_length_a   7.26623391
_cell_length_b   10.51959545
_cell_length_c   2.01879685
_cell_angle_alpha   90.00000000
_cell_angle_beta   116.98188223
_cell_angle_gamma   90.00000000
_symmetry_Int_Tables_number   1
_chemical_formula_structural   NaCl
_chemical_formula_sum   'Na4 Cl4'
_cell_volume   137.51556619
_cell_formula_units_Z   4
loop_
 _symmetry_equiv_pos_site_id
 _symmetry_equiv_pos_as_xyz
  1  'x, y, z'
loop_
 _atom_site_type_symbol
 _atom_site_label
 _atom_site_symmetry_multiplicity
 _atom_site_fract_x
 _atom_site_fract_y
 _atom_site_fract_z
 _atom_site_occupancy
  Na  Na0  1  0.08813421  0.29122818  0.34282890  1.0
  Na  Na1  1  0.71443584  0.24880267  0.08385811  1.0
  Na  Na2  1  0.61680289  0.75815852  0.24677937  1.0
  Na  Na3  1  0.77316416  0.53538740  0.61892506  1.0
  Cl  Cl4  1  0.30534067  0.00000000  0.26365668  1.0
  Cl  Cl5  1  0.27425966  0.50000000  0.26044404  1.0
  Cl  Cl6  1  0.80530238  0.00000000  0.74824562  1.0
  Cl  Cl7  1  0.52835638  0.50000000  0.72196938  1.0
