# generated using pymatgen
data_NaCl
_symmetry_space_group_name_H-M   'P 1'
_cell_length_a   11.43504860
_cell_length_b   7.29016748
_cell_length_c   4.90984983
_cell_angle_alpha   90.00000000
_cell_angle_beta   90.00000000
_cell_angle_gamma   90.00000000
_symmetry_Int_Tables_number   1
_chemical_formula_structural   NaCl
_chemical_formula_sum   'Na4 Cl4'
_cell_volume   409.30187075
_cell_formula_units_Z   4
loop_
 _symmetry_equiv_pos_site_id
 _symmetry_equiv_pos_as_xyz
  1  'x, y, z'
loop_
 _atom_site_type_symbol
 _atom_site_label
 _atom_site_symmetry_multiplicity
 _atom_site_fract_x
 _atom_site_fract_y
 _atom_site_fract_z
 _atom_site_occupancy
  Na  Na0  1  0.25000000  0.18178722  0.80854641  1.0
  Na  Na1  1  0.75000000  0.49518210  0.23889393  1.0
  Na  Na2  1  0.25000000  0.05592334  0.07010411  1.0
  Na  Na3  1  0.75000000  0.28615362  0.72010239  1.0
  Cl  Cl4  1  0.25000000  0.41308451  0.52075714  1.0
  Cl  Cl5  1  0.75000000  0.07081838  0.76301929  1.0
  Cl  Cl6  1  0.25000000  0.86344525  0.63140296  1.0
  Cl  Cl7  1  0.75000000  0.88859300  0.71373337  1.0
