# generated using pymatgen
data_NaCl
_symmetry_space_group_name_H-M   'P 1'
_cell_length_a   7.68023157
_cell_length_b   8.55622859
_cell_length_c   5.30400980
_cell_angle_alpha   90.00000000
_cell_angle_beta   90.00000000
_cell_angle_gamma   90.00000000
_symmetry_Int_Tables_number   1
_chemical_formula_structural   NaCl
_chemical_formula_sum   'Na4 Cl4'
_cell_volume   348.54672903
_cell_formula_units_Z   4
loop_
 _symmetry_equiv_pos_site_id
 _symmetry_equiv_pos_as_xyz
  1  'x, y, z'
loop_
 _atom_site_type_symbol
 _atom_site_label
 _atom_site_symmetry_multiplicity
 _atom_site_fract_x
 _atom_site_fract_y
 _atom_site_fract_z
 _atom_site_occupancy
  Na  Na0  1  0.21221537  0.37400972  0.59252739  1.0
  Na  Na1  1  0.92700972  0.07178946  0.81805942  1.0
  Na  Na2  1  0.59870367  0.58256470  0.12916609  1.0
  Na  Na3  1  0.63630743  0.57011806  0.70811440  1.0
  Cl  Cl4  1  0.37513473  0.95148117  0.31530808  1.0
  Cl  Cl5  1  0.95032503  0.52980936  0.03200097  1.0
  Cl  Cl6  1  0.68387302  0.53501645  0.52543063  1.0
  Cl  Cl7  1  0.82273078  0.66047050  0.25713411  1.0
