# generated using pymatgen
data_NaCl
_symmetry_space_group_name_H-M   'P 1'
_cell_length_a   4.21729081
_cell_length_b   16.46347571
_cell_length_c   2.80938089
_cell_angle_alpha   90.00000000
_cell_angle_beta   90.00000000
_cell_angle_gamma   90.00000000
_symmetry_Int_Tables_number   1
_chemical_formula_structural   NaCl
_chemical_formula_sum   'Na4 Cl4'
_cell_volume   195.05886853
_cell_formula_units_Z   4
loop_
 _symmetry_equiv_pos_site_id
 _symmetry_equiv_pos_as_xyz
  1  'x, y, z'
loop_
 _atom_site_type_symbol
 _atom_site_label
 _atom_site_symmetry_multiplicity
 _atom_site_fract_x
 _atom_site_fract_y
 _atom_site_fract_z
 _atom_site_occupancy
  Na  Na0  1  0.59011429  0.24617187  0.53996150  1.0
  Na  Na1  1  0.81095942  0.29619696  0.80743253  1.0
  Na  Na2  1  0.99950777  0.67566238  0.07462934  1.0
  Na  Na3  1  0.55842976  0.73071157  0.51094685  1.0
  Cl  Cl4  1  0.33322168  0.95917131  0.24520730  1.0
  Cl  Cl5  1  0.91733118  0.38153187  0.00134618  1.0
  Cl  Cl6  1  0.03310253  0.22176927  0.43504664  1.0
  Cl  Cl7  1  0.51589621  0.58303052  0.43247965  1.0
