# generated using pymatgen
data_NaCl
_symmetry_space_group_name_H-M   'P 1'
_cell_length_a   6.68321945
_cell_length_b   6.68321945
_cell_length_c   5.62859093
_cell_angle_alpha   90.00000000
_cell_angle_beta   90.00000000
_cell_angle_gamma   90.00000000
_symmetry_Int_Tables_number   1
_chemical_formula_structural   NaCl
_chemical_formula_sum   'Na4 Cl4'
_cell_volume   251.40339037
_cell_formula_units_Z   4
loop_
 _symmetry_equiv_pos_site_id
 _symmetry_equiv_pos_as_xyz
  1  'x, y, z'
loop_
 _atom_site_type_symbol
 _atom_site_label
 _atom_site_symmetry_multiplicity
 _atom_site_fract_x
 _atom_site_fract_y
 _atom_site_fract_z
 _atom_site_occupancy
  Na  Na0  1  0.55234542  0.08953011  0.30201911  1.0
  Na  Na1  1  0.50372375  0.17517840  0.67373895  1.0
  Na  Na2  1  0.80808394  0.10062710  0.64790047  1.0
  Na  Na3  1  0.72649497  0.50895776  0.58792195  1.0
  Cl  Cl4  1  0.40906734  0.84638191  0.05416743  1.0
  Cl  Cl5  1  0.30293520  0.54219942  0.83415911  1.0
  Cl  Cl6  1  0.52366574  0.73953759  0.78182146  1.0
  Cl  Cl7  1  0.78601759  0.98129330  0.78443467  1.0
