# generated using pymatgen
data_NaCl
_symmetry_space_group_name_H-M   'P 1'
_cell_length_a   5.26527934
_cell_length_b   5.26527934
_cell_length_c   5.26527934
_cell_angle_alpha   90.00000000
_cell_angle_beta   90.00000000
_cell_angle_gamma   90.00000000
_symmetry_Int_Tables_number   1
_chemical_formula_structural   NaCl
_chemical_formula_sum   'Na4 Cl4'
_cell_volume   145.97021596
_cell_formula_units_Z   4
loop_
 _symmetry_equiv_pos_site_id
 _symmetry_equiv_pos_as_xyz
  1  'x, y, z'
loop_
 _atom_site_type_symbol
 _atom_site_label
 _atom_site_symmetry_multiplicity
 _atom_site_fract_x
 _atom_site_fract_y
 _atom_site_fract_z
 _atom_site_occupancy
  Na  Na0  1  0.05293228  0.05293228  0.05293228  1.0
  Na  Na1  1  0.26377407  0.76377407  0.73622593  1.0
  Na  Na2  1  0.81669567  0.68330433  0.31669567  1.0
  Na  Na3  1  0.96075821  0.03924179  0.53924179  1.0
  Cl  Cl4  1  0.20110267  0.20110267  0.20110267  1.0
  Cl  Cl5  1  0.87847945  0.37847945  0.12152055  1.0
  Cl  Cl6  1  0.15562534  0.34437466  0.65562534  1.0
  Cl  Cl7  1  0.55575616  0.44424384  0.94424384  1.0
