# generated using pymatgen
data_NaCl
_symmetry_space_group_name_H-M   'P 1'
_cell_length_a   4.51664654
_cell_length_b   4.51664654
_cell_length_c   15.86649914
_cell_angle_alpha   90.00000000
_cell_angle_beta   90.00000000
_cell_angle_gamma   90.00000000
_symmetry_Int_Tables_number   1
_chemical_formula_structural   NaCl
_chemical_formula_sum   'Na4 Cl4'
_cell_volume   323.67810512
_cell_formula_units_Z   4
loop_
 _symmetry_equiv_pos_site_id
 _symmetry_equiv_pos_as_xyz
  1  'x, y, z'
loop_
 _atom_site_type_symbol
 _atom_site_label
 _atom_site_symmetry_multiplicity
 _atom_site_fract_x
 _atom_site_fract_y
 _atom_site_fract_z
 _atom_site_occupancy
  Na  Na0  1  0.00000000  0.50000000  0.21942980  1.0
  Na  Na1  1  0.00000000  0.50000000  0.79781125  1.0
  Na  Na2  1  0.50000000  0.00000000  0.82454476  1.0
  Na  Na3  1  0.50000000  0.00000000  0.38767304  1.0
  Cl  Cl4  1  0.30934627  0.30934627  0.18644357  1.0
  Cl  Cl5  1  0.53926939  0.53926939  0.45360345  1.0
  Cl  Cl6  1  0.58765630  0.41234370  0.60119237  1.0
  Cl  Cl7  1  0.03561575  0.96438425  0.79394272  1.0
