# generated using pymatgen
data_NaCl
_symmetry_space_group_name_H-M   'P 1'
_cell_length_a   8.43375691
_cell_length_b   11.89966042
_cell_length_c   3.47663412
_cell_angle_alpha   90.00000000
_cell_angle_beta   90.00000000
_cell_angle_gamma   90.00000000
_symmetry_Int_Tables_number   1
_chemical_formula_structural   NaCl
_chemical_formula_sum   'Na4 Cl4'
_cell_volume   348.91097884
_cell_formula_units_Z   4
loop_
 _symmetry_equiv_pos_site_id
 _symmetry_equiv_pos_as_xyz
  1  'x, y, z'
loop_
 _atom_site_type_symbol
 _atom_site_label
 _atom_site_symmetry_multiplicity
 _atom_site_fract_x
 _atom_site_fract_y
 _atom_site_fract_z
 _atom_site_occupancy
  Na  Na0  1  0.00239849  0.05035588  0.48370119  1.0
  Na  Na1  1  0.37201927  0.12725315  0.86798471  1.0
  Na  Na2  1  0.58882219  0.50182768  0.82857855  1.0
  Na  Na3  1  0.29653796  0.34149227  0.96415307  1.0
  Cl  Cl4  1  0.40368428  0.69199880  0.29387860  1.0
  Cl  Cl5  1  0.34400393  0.43042319  0.84947508  1.0
  Cl  Cl6  1  0.27899017  0.46256697  0.20010858  1.0
  Cl  Cl7  1  0.49958105  0.82392867  0.59635068  1.0
