# generated using pymatgen
data_NaCl
_symmetry_space_group_name_H-M   'P 1'
_cell_length_a   6.77230393
_cell_length_b   6.29843083
_cell_length_c   6.87128843
_cell_angle_alpha   90.00000000
_cell_angle_beta   90.00000000
_cell_angle_gamma   90.00000000
_symmetry_Int_Tables_number   1
_chemical_formula_structural   NaCl
_chemical_formula_sum   'Na4 Cl4'
_cell_volume   293.09403745
_cell_formula_units_Z   4
loop_
 _symmetry_equiv_pos_site_id
 _symmetry_equiv_pos_as_xyz
  1  'x, y, z'
loop_
 _atom_site_type_symbol
 _atom_site_label
 _atom_site_symmetry_multiplicity
 _atom_site_fract_x
 _atom_site_fract_y
 _atom_site_fract_z
 _atom_site_occupancy
  Na  Na0  1  0.02170300  0.15965521  0.58645807  1.0
  Na  Na1  1  0.22942847  0.10521782  0.28349113  1.0
  Na  Na2  1  0.68400990  0.43197329  0.92660332  1.0
  Na  Na3  1  0.37594264  0.12861672  0.64108655  1.0
  Cl  Cl4  1  0.00000000  0.00000000  0.28961156  1.0
  Cl  Cl5  1  0.50000000  0.50000000  0.71848853  1.0
  Cl  Cl6  1  0.00000000  0.50000000  0.08084634  1.0
  Cl  Cl7  1  0.50000000  0.00000000  0.41504140  1.0
