# generated using pymatgen
data_NaCl
_symmetry_space_group_name_H-M   'P 1'
_cell_length_a   5.33175090
_cell_length_b   7.96725489
_cell_length_c   5.23571575
_cell_angle_alpha   90.00000000
_cell_angle_beta   90.00000000
_cell_angle_gamma   90.00000000
_symmetry_Int_Tables_number   1
_chemical_formula_structural   NaCl
_chemical_formula_sum   'Na4 Cl4'
_cell_volume   222.41016013
_cell_formula_units_Z   4
loop_
 _symmetry_equiv_pos_site_id
 _symmetry_equiv_pos_as_xyz
  1  'x, y, z'
loop_
 _atom_site_type_symbol
 _atom_site_label
 _atom_site_symmetry_multiplicity
 _atom_site_fract_x
 _atom_site_fract_y
 _atom_site_fract_z
 _atom_site_occupancy
  Na  Na0  1  0.00000000  0.09248712  0.44429105  1.0
  Na  Na1  1  0.00000000  0.43803311  0.79094373  1.0
  Na  Na2  1  0.50000000  0.67983551  0.89663499  1.0
  Na  Na3  1  0.50000000  0.00099706  0.99797884  1.0
  Cl  Cl4  1  0.00000000  0.76802949  0.36227516  1.0
  Cl  Cl5  1  0.00000000  0.14991994  0.93275819  1.0
  Cl  Cl6  1  0.50000000  0.95645866  0.24373558  1.0
  Cl  Cl7  1  0.50000000  0.54791949  0.00104905  1.0
