# generated using pymatgen
data_NaCl
_symmetry_space_group_name_H-M   'P 1'
_cell_length_a   5.25453855
_cell_length_b   5.25453855
_cell_length_c   10.95988743
_cell_angle_alpha   90.00000000
_cell_angle_beta   90.00000000
_cell_angle_gamma   90.00000000
_symmetry_Int_Tables_number   1
_chemical_formula_structural   NaCl
_chemical_formula_sum   'Na4 Cl4'
_cell_volume   302.60441402
_cell_formula_units_Z   4
loop_
 _symmetry_equiv_pos_site_id
 _symmetry_equiv_pos_as_xyz
  1  'x, y, z'
loop_
 _atom_site_type_symbol
 _atom_site_label
 _atom_site_symmetry_multiplicity
 _atom_site_fract_x
 _atom_site_fract_y
 _atom_site_fract_z
 _atom_site_occupancy
  Na  Na0  1  0.06812449  0.28964978  0.45818000  1.0
  Na  Na1  1  0.38445139  0.32929366  0.74172740  1.0
  Na  Na2  1  0.77850482  0.20647859  0.00107399  1.0
  Na  Na3  1  0.67973083  0.94776881  0.73695514  1.0
  Cl  Cl4  1  0.25141722  0.70073822  0.22612592  1.0
  Cl  Cl5  1  0.36762280  0.13553101  0.91854296  1.0
  Cl  Cl6  1  0.31931575  0.96874613  0.79505440  1.0
  Cl  Cl7  1  0.89357445  0.88965973  0.71301955  1.0
