# generated using pymatgen
data_NaCl
_symmetry_space_group_name_H-M   'P 1'
_cell_length_a   8.18172301
_cell_length_b   9.85122373
_cell_length_c   2.49758137
_cell_angle_alpha   90.00000000
_cell_angle_beta   90.00000000
_cell_angle_gamma   90.00000000
_symmetry_Int_Tables_number   1
_chemical_formula_structural   NaCl
_chemical_formula_sum   'Na4 Cl4'
_cell_volume   201.30501813
_cell_formula_units_Z   4
loop_
 _symmetry_equiv_pos_site_id
 _symmetry_equiv_pos_as_xyz
  1  'x, y, z'
loop_
 _atom_site_type_symbol
 _atom_site_label
 _atom_site_symmetry_multiplicity
 _atom_site_fract_x
 _atom_site_fract_y
 _atom_site_fract_z
 _atom_site_occupancy
  Na  Na0  1  0.00000000  0.50000000  0.55023741  1.0
  Na  Na1  1  0.50000000  0.50000000  0.21405979  1.0
  Na  Na2  1  0.25000000  0.48679221  0.23714579  1.0
  Na  Na3  1  0.75000000  0.09639738  0.31085910  1.0
  Cl  Cl4  1  0.25000000  0.78998816  0.19339699  1.0
  Cl  Cl5  1  0.75000000  0.39869028  0.48288268  1.0
  Cl  Cl6  1  0.25000000  0.32162207  0.05654598  1.0
  Cl  Cl7  1  0.75000000  0.50894135  0.20144287  1.0
