# generated using pymatgen
data_NaCl
_symmetry_space_group_name_H-M   'P 1'
_cell_length_a   6.14649231
_cell_length_b   6.95623360
_cell_length_c   3.04190773
_cell_angle_alpha   90.00000000
_cell_angle_beta   90.00000000
_cell_angle_gamma   90.00000000
_symmetry_Int_Tables_number   1
_chemical_formula_structural   NaCl
_chemical_formula_sum   'Na4 Cl4'
_cell_volume   130.06113418
_cell_formula_units_Z   4
loop_
 _symmetry_equiv_pos_site_id
 _symmetry_equiv_pos_as_xyz
  1  'x, y, z'
loop_
 _atom_site_type_symbol
 _atom_site_label
 _atom_site_symmetry_multiplicity
 _atom_site_fract_x
 _atom_site_fract_y
 _atom_site_fract_z
 _atom_site_occupancy
  Na  Na0  1  0.25000000  0.14456618  0.50563564  1.0
  Na  Na1  1  0.75000000  0.27086477  0.38982736  1.0
  Na  Na2  1  0.75000000  0.75375560  0.70951574  1.0
  Na  Na3  1  0.25000000  0.02158399  0.02619387  1.0
  Cl  Cl4  1  0.25000000  0.89934601  0.35956782  1.0
  Cl  Cl5  1  0.75000000  0.50293247  0.27230146  1.0
  Cl  Cl6  1  0.75000000  0.08870876  0.53261950  1.0
  Cl  Cl7  1  0.25000000  0.82202115  0.79088264  1.0
