# generated using pymatgen
data_NaCl
_symmetry_space_group_name_H-M   'P 1'
_cell_length_a   8.07502789
_cell_length_b   7.12993075
_cell_length_c   3.57898849
_cell_angle_alpha   90.00000000
_cell_angle_beta   95.22090271
_cell_angle_gamma   90.00000000
_symmetry_Int_Tables_number   1
_chemical_formula_structural   NaCl
_chemical_formula_sum   'Na4 Cl4'
_cell_volume   205.20319810
_cell_formula_units_Z   4
loop_
 _symmetry_equiv_pos_site_id
 _symmetry_equiv_pos_as_xyz
  1  'x, y, z'
loop_
 _atom_site_type_symbol
 _atom_site_label
 _atom_site_symmetry_multiplicity
 _atom_site_fract_x
 _atom_site_fract_y
 _atom_site_fract_z
 _atom_site_occupancy
  Na  Na0  1  0.09999733  0.20562593  0.56309190  1.0
  Na  Na1  1  0.30570469  0.24098836  0.18430153  1.0
  Na  Na2  1  0.84968791  0.57840493  0.48643200  1.0
  Na  Na3  1  0.09827365  0.77252463  0.82946114  1.0
  Cl  Cl4  1  0.34193758  0.87809252  0.14929851  1.0
  Cl  Cl5  1  0.50802099  0.27918429  0.35655040  1.0
  Cl  Cl6  1  0.20720202  0.41136347  0.82623297  1.0
  Cl  Cl7  1  0.10036004  0.02698833  0.03367467  1.0
