# generated using pymatgen
data_NaCl
_symmetry_space_group_name_H-M   'P 1'
_cell_length_a   8.55498570
_cell_length_b   11.17004486
_cell_length_c   2.54895758
_cell_angle_alpha   90.00000000
_cell_angle_beta   94.32839453
_cell_angle_gamma   90.00000000
_symmetry_Int_Tables_number   1
_chemical_formula_structural   NaCl
_chemical_formula_sum   'Na4 Cl4'
_cell_volume   242.88258240
_cell_formula_units_Z   4
loop_
 _symmetry_equiv_pos_site_id
 _symmetry_equiv_pos_as_xyz
  1  'x, y, z'
loop_
 _atom_site_type_symbol
 _atom_site_label
 _atom_site_symmetry_multiplicity
 _atom_site_fract_x
 _atom_site_fract_y
 _atom_site_fract_z
 _atom_site_occupancy
  Na  Na0  1  0.07025809  0.00126804  0.42266412  1.0
  Na  Na1  1  0.55220706  0.10623254  0.75362143  1.0
  Na  Na2  1  0.86531429  0.76288779  0.78057337  1.0
  Na  Na3  1  0.63038366  0.02090391  0.14236196  1.0
  Cl  Cl4  1  0.34845083  0.84715979  0.20681391  1.0
  Cl  Cl5  1  0.48014975  0.54567998  0.69328435  1.0
  Cl  Cl6  1  0.24550444  0.88339929  0.09013974  1.0
  Cl  Cl7  1  0.70825485  0.66813562  0.50041442  1.0
