# generated using pymatgen
data_NaCl
_symmetry_space_group_name_H-M   'P 1'
_cell_length_a   5.80053852
_cell_length_b   14.10070159
_cell_length_c   2.47567638
_cell_angle_alpha   90.00000000
_cell_angle_beta   104.85510965
_cell_angle_gamma   90.00000000
_symmetry_Int_Tables_number   1
_chemical_formula_structural   NaCl
_chemical_formula_sum   'Na4 Cl4'
_cell_volume   195.72192373
_cell_formula_units_Z   4
loop_
 _symmetry_equiv_pos_site_id
 _symmetry_equiv_pos_as_xyz
  1  'x, y, z'
loop_
 _atom_site_type_symbol
 _atom_site_label
 _atom_site_symmetry_multiplicity
 _atom_site_fract_x
 _atom_site_fract_y
 _atom_site_fract_z
 _atom_site_occupancy
  Na  Na0  1  0.02001590  0.23329951  0.41669867  1.0
  Na  Na1  1  0.71090892  0.13727929  0.25908129  1.0
  Na  Na2  1  0.69027071  0.99850827  0.92292841  1.0
  Na  Na3  1  0.50046719  0.10585100  0.44163977  1.0
  Cl  Cl4  1  0.34824411  0.70034253  0.11662766  1.0
  Cl  Cl5  1  0.51175560  0.50739889  0.47317091  1.0
  Cl  Cl6  1  0.08004044  0.97741530  0.05265626  1.0
  Cl  Cl7  1  0.57252796  0.85785880  0.25120312  1.0
