# generated using pymatgen
data_NaCl
_symmetry_space_group_name_H-M   'P 1'
_cell_length_a   10.13358426
_cell_length_b   10.13358426
_cell_length_c   2.62562239
_cell_angle_alpha   90.00000000
_cell_angle_beta   90.00000000
_cell_angle_gamma   90.00000000
_symmetry_Int_Tables_number   1
_chemical_formula_structural   NaCl
_chemical_formula_sum   'Na4 Cl4'
_cell_volume   269.62392907
_cell_formula_units_Z   4
loop_
 _symmetry_equiv_pos_site_id
 _symmetry_equiv_pos_as_xyz
  1  'x, y, z'
loop_
 _atom_site_type_symbol
 _atom_site_label
 _atom_site_symmetry_multiplicity
 _atom_site_fract_x
 _atom_site_fract_y
 _atom_site_fract_z
 _atom_site_occupancy
  Na  Na0  1  0.05127090  0.21200062  0.62337140  1.0
  Na  Na1  1  0.19331420  0.00059429  0.95719986  1.0
  Na  Na2  1  0.91644260  0.07911696  0.66250205  1.0
  Na  Na3  1  0.99618296  0.96218251  0.61798960  1.0
  Cl  Cl4  1  0.81608724  0.82498608  0.26054174  1.0
  Cl  Cl5  1  0.51639246  0.55600052  0.76093390  1.0
  Cl  Cl6  1  0.38947090  0.76267767  0.82855033  1.0
  Cl  Cl7  1  0.72172010  0.96282320  0.41909950  1.0
