# generated using pymatgen
data_NaCl
_symmetry_space_group_name_H-M   'P 1'
_cell_length_a   4.38554548
_cell_length_b   15.41313216
_cell_length_c   3.95490313
_cell_angle_alpha   90.00000000
_cell_angle_beta   90.00000000
_cell_angle_gamma   90.00000000
_symmetry_Int_Tables_number   1
_chemical_formula_structural   NaCl
_chemical_formula_sum   'Na4 Cl4'
_cell_volume   267.33164574
_cell_formula_units_Z   4
loop_
 _symmetry_equiv_pos_site_id
 _symmetry_equiv_pos_as_xyz
  1  'x, y, z'
loop_
 _atom_site_type_symbol
 _atom_site_label
 _atom_site_symmetry_multiplicity
 _atom_site_fract_x
 _atom_site_fract_y
 _atom_site_fract_z
 _atom_site_occupancy
  Na  Na0  1  0.25000000  0.29112827  0.46000862  1.0
  Na  Na1  1  0.75000000  0.32541228  0.15312765  1.0
  Na  Na2  1  0.75000000  0.89104395  0.93171384  1.0
  Na  Na3  1  0.25000000  0.65410723  0.91288577  1.0
  Cl  Cl4  1  0.00000000  0.00000000  0.18705790  1.0
  Cl  Cl5  1  0.50000000  0.00000000  0.16741900  1.0
  Cl  Cl6  1  0.50000000  0.50000000  0.54725495  1.0
  Cl  Cl7  1  0.00000000  0.50000000  0.73391249  1.0
