# generated using pymatgen
data_NaCl
_symmetry_space_group_name_H-M   'P 1'
_cell_length_a   4.31487211
_cell_length_b   9.36114990
_cell_length_c   5.38477829
_cell_angle_alpha   90.00000000
_cell_angle_beta   90.00000000
_cell_angle_gamma   90.00000000
_symmetry_Int_Tables_number   1
_chemical_formula_structural   NaCl
_chemical_formula_sum   'Na4 Cl4'
_cell_volume   217.50285114
_cell_formula_units_Z   4
loop_
 _symmetry_equiv_pos_site_id
 _symmetry_equiv_pos_as_xyz
  1  'x, y, z'
loop_
 _atom_site_type_symbol
 _atom_site_label
 _atom_site_symmetry_multiplicity
 _atom_site_fract_x
 _atom_site_fract_y
 _atom_site_fract_z
 _atom_site_occupancy
  Na  Na0  1  0.75269837  0.52441402  0.68284314  1.0
  Na  Na1  1  0.95687776  0.13559258  0.87112611  1.0
  Na  Na2  1  0.69706356  0.23698124  0.02798630  1.0
  Na  Na3  1  0.14310256  0.38250895  0.92321766  1.0
  Cl  Cl4  1  0.38610823  0.19558637  0.97094819  1.0
  Cl  Cl5  1  0.91840104  0.24509113  0.24398822  1.0
  Cl  Cl6  1  0.24933814  0.79991286  0.76952600  1.0
  Cl  Cl7  1  0.69508130  0.28076363  0.32140127  1.0
