# generated using pymatgen
data_NaCl
_symmetry_space_group_name_H-M   'P 1'
_cell_length_a   5.50241658
_cell_length_b   9.51060150
_cell_length_c   6.53085817
_cell_angle_alpha   90.00000000
_cell_angle_beta   90.00000000
_cell_angle_gamma   90.00000000
_symmetry_Int_Tables_number   1
_chemical_formula_structural   NaCl
_chemical_formula_sum   'Na4 Cl4'
_cell_volume   341.76824185
_cell_formula_units_Z   4
loop_
 _symmetry_equiv_pos_site_id
 _symmetry_equiv_pos_as_xyz
  1  'x, y, z'
loop_
 _atom_site_type_symbol
 _atom_site_label
 _atom_site_symmetry_multiplicity
 _atom_site_fract_x
 _atom_site_fract_y
 _atom_site_fract_z
 _atom_site_occupancy
  Na  Na0  1  0.65307638  0.11491135  0.40259118  1.0
  Na  Na1  1  0.50608371  0.29662574  0.80339421  1.0
  Na  Na2  1  0.68489094  0.25354472  0.54125232  1.0
  Na  Na3  1  0.35855825  0.09591159  0.05068162  1.0
  Cl  Cl4  1  0.54207310  0.95612038  0.10979244  1.0
  Cl  Cl5  1  0.17698035  0.19569712  0.77746812  1.0
  Cl  Cl6  1  0.41262224  0.80422550  0.01645416  1.0
  Cl  Cl7  1  0.49877953  0.25932632  0.06168578  1.0
