# generated using pymatgen
data_NaCl
_symmetry_space_group_name_H-M   'P 1'
_cell_length_a   3.96616320
_cell_length_b   10.04176358
_cell_length_c   3.13390767
_cell_angle_alpha   112.34124169
_cell_angle_beta   94.74741852
_cell_angle_gamma   106.07583335
_symmetry_Int_Tables_number   1
_chemical_formula_structural   NaCl
_chemical_formula_sum   'Na4 Cl4'
_cell_volume   108.42073547
_cell_formula_units_Z   4
loop_
 _symmetry_equiv_pos_site_id
 _symmetry_equiv_pos_as_xyz
  1  'x, y, z'
loop_
 _atom_site_type_symbol
 _atom_site_label
 _atom_site_symmetry_multiplicity
 _atom_site_fract_x
 _atom_site_fract_y
 _atom_site_fract_z
 _atom_site_occupancy
  Na  Na0  1  0.00000000  0.50000000  0.50000000  1.0
  Na  Na1  1  0.50000000  0.00000000  0.50000000  1.0
  Na  Na2  1  0.11050408  0.24661169  0.53946343  1.0
  Na  Na3  1  0.55181753  0.17284547  0.58350806  1.0
  Cl  Cl4  1  0.00000000  0.00000000  0.00000000  1.0
  Cl  Cl5  1  0.50000000  0.50000000  0.50000000  1.0
  Cl  Cl6  1  0.91366905  0.46287383  0.11743303  1.0
  Cl  Cl7  1  0.88338583  0.13943614  0.41124815  1.0
