# generated using pymatgen
data_NaCl
_symmetry_space_group_name_H-M   'P 1'
_cell_length_a   5.67914269
_cell_length_b   5.67914269
_cell_length_c   9.91636854
_cell_angle_alpha   90.00000000
_cell_angle_beta   90.00000000
_cell_angle_gamma   90.00000000
_symmetry_Int_Tables_number   1
_chemical_formula_structural   NaCl
_chemical_formula_sum   'Na4 Cl4'
_cell_volume   319.82927975
_cell_formula_units_Z   4
loop_
 _symmetry_equiv_pos_site_id
 _symmetry_equiv_pos_as_xyz
  1  'x, y, z'
loop_
 _atom_site_type_symbol
 _atom_site_label
 _atom_site_symmetry_multiplicity
 _atom_site_fract_x
 _atom_site_fract_y
 _atom_site_fract_z
 _atom_site_occupancy
  Na  Na0  1  0.23833147  0.04704348  0.40976278  1.0
  Na  Na1  1  0.32725844  0.66414442  0.95507799  1.0
  Na  Na2  1  0.84332733  0.94744727  0.45409661  1.0
  Na  Na3  1  0.82224245  0.77792581  0.04762725  1.0
  Cl  Cl4  1  0.30307898  0.34700263  0.23261662  1.0
  Cl  Cl5  1  0.82576093  0.26259088  0.14431140  1.0
  Cl  Cl6  1  0.52078604  0.55878515  0.33366035  1.0
  Cl  Cl7  1  0.90559475  0.33261338  0.95614539  1.0
