# generated using pymatgen
data_NaCl
_symmetry_space_group_name_H-M   'P 1'
_cell_length_a   6.71126889
_cell_length_b   6.71126889
_cell_length_c   6.86775884
_cell_angle_alpha   90.00000000
_cell_angle_beta   90.00000000
_cell_angle_gamma   90.00000000
_symmetry_Int_Tables_number   1
_chemical_formula_structural   NaCl
_chemical_formula_sum   'Na4 Cl4'
_cell_volume   309.33161950
_cell_formula_units_Z   4
loop_
 _symmetry_equiv_pos_site_id
 _symmetry_equiv_pos_as_xyz
  1  'x, y, z'
loop_
 _atom_site_type_symbol
 _atom_site_label
 _atom_site_symmetry_multiplicity
 _atom_site_fract_x
 _atom_site_fract_y
 _atom_site_fract_z
 _atom_site_occupancy
  Na  Na0  1  0.00000000  0.50000000  0.55144316  1.0
  Na  Na1  1  0.00000000  0.50000000  0.05283763  1.0
  Na  Na2  1  0.50000000  0.00000000  0.57756099  1.0
  Na  Na3  1  0.50000000  0.00000000  0.33360127  1.0
  Cl  Cl4  1  0.24605333  0.24605333  0.00000000  1.0
  Cl  Cl5  1  0.80423999  0.80423999  0.00000000  1.0
  Cl  Cl6  1  0.03585310  0.96414690  0.50000000  1.0
  Cl  Cl7  1  0.15804822  0.84195178  0.50000000  1.0
