# generated using pymatgen
data_NaCl
_symmetry_space_group_name_H-M   'P 1'
_cell_length_a   6.98880764
_cell_length_b   6.98880764
_cell_length_c   6.98880764
_cell_angle_alpha   90.00000000
_cell_angle_beta   90.00000000
_cell_angle_gamma   90.00000000
_symmetry_Int_Tables_number   1
_chemical_formula_structural   NaCl
_chemical_formula_sum   'Na4 Cl4'
_cell_volume   341.35735233
_cell_formula_units_Z   4
loop_
 _symmetry_equiv_pos_site_id
 _symmetry_equiv_pos_as_xyz
  1  'x, y, z'
loop_
 _atom_site_type_symbol
 _atom_site_label
 _atom_site_symmetry_multiplicity
 _atom_site_fract_x
 _atom_site_fract_y
 _atom_site_fract_z
 _atom_site_occupancy
  Na  Na0  1  0.18597232  0.18597232  0.18597232  1.0
  Na  Na1  1  0.80853790  0.30853790  0.19146210  1.0
  Na  Na2  1  0.08231682  0.41768318  0.58231682  1.0
  Na  Na3  1  0.77048162  0.22951838  0.72951838  1.0
  Cl  Cl4  1  0.44065997  0.44065997  0.44065997  1.0
  Cl  Cl5  1  0.21917524  0.71917524  0.78082476  1.0
  Cl  Cl6  1  0.47807292  0.02192708  0.97807292  1.0
  Cl  Cl7  1  0.14192326  0.85807674  0.35807674  1.0
