# generated using pymatgen
data_NaCl
_symmetry_space_group_name_H-M   'P 1'
_cell_length_a   5.30214441
_cell_length_b   5.30214441
_cell_length_c   9.23607965
_cell_angle_alpha   90.00000000
_cell_angle_beta   90.00000000
_cell_angle_gamma   90.00000000
_symmetry_Int_Tables_number   1
_chemical_formula_structural   NaCl
_chemical_formula_sum   'Na4 Cl4'
_cell_volume   259.65146282
_cell_formula_units_Z   4
loop_
 _symmetry_equiv_pos_site_id
 _symmetry_equiv_pos_as_xyz
  1  'x, y, z'
loop_
 _atom_site_type_symbol
 _atom_site_label
 _atom_site_symmetry_multiplicity
 _atom_site_fract_x
 _atom_site_fract_y
 _atom_site_fract_z
 _atom_site_occupancy
  Na  Na0  1  0.30681018  0.05681111  0.45984912  1.0
  Na  Na1  1  0.43570574  0.49111764  0.60714212  1.0
  Na  Na2  1  0.83906978  0.56901646  0.06373404  1.0
  Na  Na3  1  0.71559355  0.70182881  0.47677788  1.0
  Cl  Cl4  1  0.17319085  0.34560731  0.62467655  1.0
  Cl  Cl5  1  0.80029580  0.33275218  0.23769045  1.0
  Cl  Cl6  1  0.65694076  0.65784528  0.90219314  1.0
  Cl  Cl7  1  0.89290941  0.32165690  0.56325657  1.0
