# generated using pymatgen
data_NaCl
_symmetry_space_group_name_H-M   'P 1'
_cell_length_a   6.87467326
_cell_length_b   13.17601057
_cell_length_c   4.46286156
_cell_angle_alpha   90.00000000
_cell_angle_beta   124.10372291
_cell_angle_gamma   90.00000000
_symmetry_Int_Tables_number   1
_chemical_formula_structural   NaCl
_chemical_formula_sum   'Na4 Cl4'
_cell_volume   334.72818760
_cell_formula_units_Z   4
loop_
 _symmetry_equiv_pos_site_id
 _symmetry_equiv_pos_as_xyz
  1  'x, y, z'
loop_
 _atom_site_type_symbol
 _atom_site_label
 _atom_site_symmetry_multiplicity
 _atom_site_fract_x
 _atom_site_fract_y
 _atom_site_fract_z
 _atom_site_occupancy
  Na  Na0  1  0.00000000  0.00000000  0.00000000  1.0
  Na  Na1  1  0.00000000  0.50000000  0.50000000  1.0
  Na  Na2  1  0.50000000  0.00000000  0.50000000  1.0
  Na  Na3  1  0.50000000  0.50000000  0.00000000  1.0
  Cl  Cl4  1  0.18960926  0.29681053  0.16310938  1.0
  Cl  Cl5  1  0.69474437  0.27513142  0.90376586  1.0
  Cl  Cl6  1  0.42787726  0.39261606  0.44467374  1.0
  Cl  Cl7  1  0.31252082  0.53090506  0.30904344  1.0
