# generated using pymatgen
data_NaCl
_symmetry_space_group_name_H-M   'P 1'
_cell_length_a   6.38470141
_cell_length_b   16.18866156
_cell_length_c   6.36086140
_cell_angle_alpha   90.00000000
_cell_angle_beta   141.25341224
_cell_angle_gamma   90.00000000
_symmetry_Int_Tables_number   1
_chemical_formula_structural   NaCl
_chemical_formula_sum   'Na4 Cl4'
_cell_volume   411.48733972
_cell_formula_units_Z   4
loop_
 _symmetry_equiv_pos_site_id
 _symmetry_equiv_pos_as_xyz
  1  'x, y, z'
loop_
 _atom_site_type_symbol
 _atom_site_label
 _atom_site_symmetry_multiplicity
 _atom_site_fract_x
 _atom_site_fract_y
 _atom_site_fract_z
 _atom_site_occupancy
  Na  Na0  1  0.32680770  0.37237721  0.54639309  1.0
  Na  Na1  1  0.67569056  0.56440421  0.08990570  1.0
  Na  Na2  1  0.54434970  0.30299417  0.71486765  1.0
  Na  Na3  1  0.25836889  0.02459288  0.18727623  1.0
  Cl  Cl4  1  0.08963163  0.50600862  0.32050945  1.0
  Cl  Cl5  1  0.33346303  0.33574965  0.18161432  1.0
  Cl  Cl6  1  0.52735477  0.62479781  0.76969627  1.0
  Cl  Cl7  1  0.26157049  0.00203907  0.39622901  1.0
