# generated using pymatgen
data_NaCl
_symmetry_space_group_name_H-M   'P 1'
_cell_length_a   6.31886976
_cell_length_b   6.31886976
_cell_length_c   3.55507618
_cell_angle_alpha   90.00000000
_cell_angle_beta   90.00000000
_cell_angle_gamma   90.00000000
_symmetry_Int_Tables_number   1
_chemical_formula_structural   NaCl
_chemical_formula_sum   'Na4 Cl4'
_cell_volume   141.94749070
_cell_formula_units_Z   4
loop_
 _symmetry_equiv_pos_site_id
 _symmetry_equiv_pos_as_xyz
  1  'x, y, z'
loop_
 _atom_site_type_symbol
 _atom_site_label
 _atom_site_symmetry_multiplicity
 _atom_site_fract_x
 _atom_site_fract_y
 _atom_site_fract_z
 _atom_site_occupancy
  Na  Na0  1  0.13427967  0.13427967  0.00000000  1.0
  Na  Na1  1  0.17444668  0.17444668  0.50000000  1.0
  Na  Na2  1  0.61787486  0.38212514  0.25000000  1.0
  Na  Na3  1  0.86802531  0.13197469  0.75000000  1.0
  Cl  Cl4  1  0.32840047  0.32840047  0.00000000  1.0
  Cl  Cl5  1  0.81148981  0.81148981  0.50000000  1.0
  Cl  Cl6  1  0.79844873  0.20155127  0.25000000  1.0
  Cl  Cl7  1  0.09484072  0.90515928  0.75000000  1.0
