# generated using pymatgen
data_NaCl
_symmetry_space_group_name_H-M   'P 1'
_cell_length_a   6.25258288
_cell_length_b   6.25258288
_cell_length_c   3.48021817
_cell_angle_alpha   90.00000000
_cell_angle_beta   90.00000000
_cell_angle_gamma   90.00000000
_symmetry_Int_Tables_number   1
_chemical_formula_structural   NaCl
_chemical_formula_sum   'Na4 Cl4'
_cell_volume   136.05840781
_cell_formula_units_Z   4
loop_
 _symmetry_equiv_pos_site_id
 _symmetry_equiv_pos_as_xyz
  1  'x, y, z'
loop_
 _atom_site_type_symbol
 _atom_site_label
 _atom_site_symmetry_multiplicity
 _atom_site_fract_x
 _atom_site_fract_y
 _atom_site_fract_z
 _atom_site_occupancy
  Na  Na0  1  0.13240806  0.13240806  0.00000000  1.0
  Na  Na1  1  0.29477168  0.29477168  0.50000000  1.0
  Na  Na2  1  0.51580410  0.48419590  0.25000000  1.0
  Na  Na3  1  0.85492041  0.14507959  0.75000000  1.0
  Cl  Cl4  1  0.37688323  0.37688323  0.00000000  1.0
  Cl  Cl5  1  0.78732712  0.78732712  0.50000000  1.0
  Cl  Cl6  1  0.95423279  0.04576721  0.25000000  1.0
  Cl  Cl7  1  0.21345558  0.78654442  0.75000000  1.0
