# generated using pymatgen
data_NaCl
_symmetry_space_group_name_H-M   'P 1'
_cell_length_a   3.40733794
_cell_length_b   16.41895629
_cell_length_c   5.69017599
_cell_angle_alpha   90.00000000
_cell_angle_beta   90.00000000
_cell_angle_gamma   90.00000000
_symmetry_Int_Tables_number   1
_chemical_formula_structural   NaCl
_chemical_formula_sum   'Na4 Cl4'
_cell_volume   318.33651282
_cell_formula_units_Z   4
loop_
 _symmetry_equiv_pos_site_id
 _symmetry_equiv_pos_as_xyz
  1  'x, y, z'
loop_
 _atom_site_type_symbol
 _atom_site_label
 _atom_site_symmetry_multiplicity
 _atom_site_fract_x
 _atom_site_fract_y
 _atom_site_fract_z
 _atom_site_occupancy
  Na  Na0  1  0.28637041  0.03503884  0.51394931  1.0
  Na  Na1  1  0.73159554  0.40159006  0.97328040  1.0
  Na  Na2  1  0.41495976  0.83157352  0.38383854  1.0
  Na  Na3  1  0.72649832  0.73442529  0.74075236  1.0
  Cl  Cl4  1  0.00000000  0.37136650  0.14995881  1.0
  Cl  Cl5  1  0.50000000  0.35179782  0.24348782  1.0
  Cl  Cl6  1  0.00000000  0.46932497  0.57825190  1.0
  Cl  Cl7  1  0.50000000  0.25324875  0.38902686  1.0
