# generated using pymatgen
data_NaCl
_symmetry_space_group_name_H-M   'P 1'
_cell_length_a   4.58965076
_cell_length_b   4.58965076
_cell_length_c   7.45653002
_cell_angle_alpha   90.00000000
_cell_angle_beta   90.00000000
_cell_angle_gamma   90.00000000
_symmetry_Int_Tables_number   1
_chemical_formula_structural   NaCl
_chemical_formula_sum   'Na4 Cl4'
_cell_volume   157.07101522
_cell_formula_units_Z   4
loop_
 _symmetry_equiv_pos_site_id
 _symmetry_equiv_pos_as_xyz
  1  'x, y, z'
loop_
 _atom_site_type_symbol
 _atom_site_label
 _atom_site_symmetry_multiplicity
 _atom_site_fract_x
 _atom_site_fract_y
 _atom_site_fract_z
 _atom_site_occupancy
  Na  Na0  1  0.17784187  0.37676143  0.50141395  1.0
  Na  Na1  1  0.25865569  0.50598921  0.12050337  1.0
  Na  Na2  1  0.68329436  0.60525292  0.66198392  1.0
  Na  Na3  1  0.69159694  0.75027460  0.99804034  1.0
  Cl  Cl4  1  0.13203311  0.24015985  0.01530000  1.0
  Cl  Cl5  1  0.05226838  0.35102917  0.29673984  1.0
  Cl  Cl6  1  0.53307896  0.61649522  0.35658681  1.0
  Cl  Cl7  1  0.86347397  0.29956601  0.05255768  1.0
