# generated using pymatgen
data_NaCl
_symmetry_space_group_name_H-M   'P 1'
_cell_length_a   6.73473492
_cell_length_b   6.73473492
_cell_length_c   8.06688659
_cell_angle_alpha   90.00000000
_cell_angle_beta   90.00000000
_cell_angle_gamma   90.00000000
_symmetry_Int_Tables_number   1
_chemical_formula_structural   NaCl
_chemical_formula_sum   'Na4 Cl4'
_cell_volume   365.88698749
_cell_formula_units_Z   4
loop_
 _symmetry_equiv_pos_site_id
 _symmetry_equiv_pos_as_xyz
  1  'x, y, z'
loop_
 _atom_site_type_symbol
 _atom_site_label
 _atom_site_symmetry_multiplicity
 _atom_site_fract_x
 _atom_site_fract_y
 _atom_site_fract_z
 _atom_site_occupancy
  Na  Na0  1  0.16855443  0.11497070  0.30475146  1.0
  Na  Na1  1  0.29192211  0.74737523  0.85762188  1.0
  Na  Na2  1  0.77552806  0.98412989  0.90190897  1.0
  Na  Na3  1  0.81845715  0.86498135  0.46395757  1.0
  Cl  Cl4  1  0.33344851  0.26157508  0.16757919  1.0
  Cl  Cl5  1  0.84824700  0.31516584  0.21962961  1.0
  Cl  Cl6  1  0.58470885  0.60927033  0.87627046  1.0
  Cl  Cl7  1  0.90444011  0.30280688  0.52163582  1.0
