# generated using pymatgen
data_NaCl
_symmetry_space_group_name_H-M   'P 1'
_cell_length_a   3.51716348
_cell_length_b   18.65611849
_cell_length_c   4.52088006
_cell_angle_alpha   90.00000000
_cell_angle_beta   90.00000000
_cell_angle_gamma   90.00000000
_symmetry_Int_Tables_number   1
_chemical_formula_structural   NaCl
_chemical_formula_sum   'Na4 Cl4'
_cell_volume   296.64486278
_cell_formula_units_Z   4
loop_
 _symmetry_equiv_pos_site_id
 _symmetry_equiv_pos_as_xyz
  1  'x, y, z'
loop_
 _atom_site_type_symbol
 _atom_site_label
 _atom_site_symmetry_multiplicity
 _atom_site_fract_x
 _atom_site_fract_y
 _atom_site_fract_z
 _atom_site_occupancy
  Na  Na0  1  0.12942864  0.12442999  0.67221397  1.0
  Na  Na1  1  0.21574476  0.54789741  0.53876507  1.0
  Na  Na2  1  0.74068313  0.84625459  0.95943208  1.0
  Na  Na3  1  0.21798455  0.75063593  0.27336420  1.0
  Cl  Cl4  1  0.36832387  0.43516518  0.28080442  1.0
  Cl  Cl5  1  0.82199115  0.43326318  0.67106201  1.0
  Cl  Cl6  1  0.01793395  0.60608725  0.54735985  1.0
  Cl  Cl7  1  0.89616138  0.72908155  0.37866965  1.0
