# generated using pymatgen
data_NaCl
_symmetry_space_group_name_H-M   'P 1'
_cell_length_a   6.82394562
_cell_length_b   14.72699843
_cell_length_c   4.95028941
_cell_angle_alpha   90.00000000
_cell_angle_beta   137.13466898
_cell_angle_gamma   90.00000000
_symmetry_Int_Tables_number   1
_chemical_formula_structural   NaCl
_chemical_formula_sum   'Na4 Cl4'
_cell_volume   338.42815739
_cell_formula_units_Z   4
loop_
 _symmetry_equiv_pos_site_id
 _symmetry_equiv_pos_as_xyz
  1  'x, y, z'
loop_
 _atom_site_type_symbol
 _atom_site_label
 _atom_site_symmetry_multiplicity
 _atom_site_fract_x
 _atom_site_fract_y
 _atom_site_fract_z
 _atom_site_occupancy
  Na  Na0  1  0.16473269  0.19790894  0.64062237  1.0
  Na  Na1  1  0.74342974  0.62414378  0.54422999  1.0
  Na  Na2  1  0.35708524  0.74329947  0.85631581  1.0
  Na  Na3  1  0.77884984  0.71321573  0.22303584  1.0
  Cl  Cl4  1  0.25292019  0.40883550  0.23594409  1.0
  Cl  Cl5  1  0.28212454  0.35771073  0.89668275  1.0
  Cl  Cl6  1  0.13932832  0.85264747  0.58492944  1.0
  Cl  Cl7  1  0.30484587  0.69815635  0.39210973  1.0
