# generated using pymatgen
data_NaCl
_symmetry_space_group_name_H-M   'P 1'
_cell_length_a   4.97257649
_cell_length_b   17.78519733
_cell_length_c   4.43423007
_cell_angle_alpha   90.00000000
_cell_angle_beta   122.29524716
_cell_angle_gamma   90.00000000
_symmetry_Int_Tables_number   1
_chemical_formula_structural   NaCl
_chemical_formula_sum   'Na4 Cl4'
_cell_volume   331.49151393
_cell_formula_units_Z   4
loop_
 _symmetry_equiv_pos_site_id
 _symmetry_equiv_pos_as_xyz
  1  'x, y, z'
loop_
 _atom_site_type_symbol
 _atom_site_label
 _atom_site_symmetry_multiplicity
 _atom_site_fract_x
 _atom_site_fract_y
 _atom_site_fract_z
 _atom_site_occupancy
  Na  Na0  1  0.00000000  0.10735403  0.00000000  1.0
  Na  Na1  1  0.50000000  0.91110759  0.00000000  1.0
  Na  Na2  1  0.00000000  0.19188777  0.50000000  1.0
  Na  Na3  1  0.50000000  0.16195851  0.50000000  1.0
  Cl  Cl4  1  0.45990601  0.50121532  0.26185461  1.0
  Cl  Cl5  1  0.70758212  0.61845822  0.19940855  1.0
  Cl  Cl6  1  0.07917988  0.85993750  0.55337392  1.0
  Cl  Cl7  1  0.78145844  0.29903599  0.06245387  1.0
