# generated using pymatgen
data_NaCl
_symmetry_space_group_name_H-M   'P 1'
_cell_length_a   4.19122039
_cell_length_b   17.62829564
_cell_length_c   5.49815032
_cell_angle_alpha   90.00000000
_cell_angle_beta   90.00000000
_cell_angle_gamma   90.00000000
_symmetry_Int_Tables_number   1
_chemical_formula_structural   NaCl
_chemical_formula_sum   'Na4 Cl4'
_cell_volume   406.22573481
_cell_formula_units_Z   4
loop_
 _symmetry_equiv_pos_site_id
 _symmetry_equiv_pos_as_xyz
  1  'x, y, z'
loop_
 _atom_site_type_symbol
 _atom_site_label
 _atom_site_symmetry_multiplicity
 _atom_site_fract_x
 _atom_site_fract_y
 _atom_site_fract_z
 _atom_site_occupancy
  Na  Na0  1  0.00000000  0.28700792  0.66666667  1.0
  Na  Na1  1  0.00000000  0.54320437  0.06614253  1.0
  Na  Na2  1  0.50000000  0.13956223  0.89909273  1.0
  Na  Na3  1  0.50000000  0.29461017  0.13354234  1.0
  Cl  Cl4  1  0.02620747  0.43916071  0.14982163  1.0
  Cl  Cl5  1  0.70090416  0.27973432  0.26310237  1.0
  Cl  Cl6  1  0.51706879  0.44344520  0.06629888  1.0
  Cl  Cl7  1  0.37683034  0.84536323  0.79455951  1.0
