# generated using pymatgen
data_NaCl
_symmetry_space_group_name_H-M   'P 1'
_cell_length_a   4.37112529
_cell_length_b   17.51623309
_cell_length_c   2.09663777
_cell_angle_alpha   90.00000000
_cell_angle_beta   90.00000000
_cell_angle_gamma   90.00000000
_symmetry_Int_Tables_number   1
_chemical_formula_structural   NaCl
_chemical_formula_sum   'Na4 Cl4'
_cell_volume   160.53043251
_cell_formula_units_Z   4
loop_
 _symmetry_equiv_pos_site_id
 _symmetry_equiv_pos_as_xyz
  1  'x, y, z'
loop_
 _atom_site_type_symbol
 _atom_site_label
 _atom_site_symmetry_multiplicity
 _atom_site_fract_x
 _atom_site_fract_y
 _atom_site_fract_z
 _atom_site_occupancy
  Na  Na0  1  0.06796726  0.08732374  0.60015247  1.0
  Na  Na1  1  0.76405677  0.50457076  0.54517962  1.0
  Na  Na2  1  0.13992390  0.58861572  0.59272437  1.0
  Na  Na3  1  0.79051437  0.74810431  0.18073692  1.0
  Cl  Cl4  1  0.48893969  0.48285231  0.30431936  1.0
  Cl  Cl5  1  0.25448767  0.43653166  0.30688074  1.0
  Cl  Cl6  1  0.37333331  0.92462698  0.92191703  1.0
  Cl  Cl7  1  0.12193052  0.76663026  0.03401457  1.0
