# generated using pymatgen
data_NaCl
_symmetry_space_group_name_H-M   'P 1'
_cell_length_a   5.06913166
_cell_length_b   5.06913166
_cell_length_c   10.12592359
_cell_angle_alpha   90.00000000
_cell_angle_beta   90.00000000
_cell_angle_gamma   90.00000000
_symmetry_Int_Tables_number   1
_chemical_formula_structural   NaCl
_chemical_formula_sum   'Na4 Cl4'
_cell_volume   260.19670249
_cell_formula_units_Z   4
loop_
 _symmetry_equiv_pos_site_id
 _symmetry_equiv_pos_as_xyz
  1  'x, y, z'
loop_
 _atom_site_type_symbol
 _atom_site_label
 _atom_site_symmetry_multiplicity
 _atom_site_fract_x
 _atom_site_fract_y
 _atom_site_fract_z
 _atom_site_occupancy
  Na  Na0  1  0.34688921  0.16140022  0.51962021  1.0
  Na  Na1  1  0.09335359  0.41405387  0.07656091  1.0
  Na  Na2  1  0.92351126  0.95570511  0.54457374  1.0
  Na  Na3  1  0.80158048  0.52121881  0.17558475  1.0
  Cl  Cl4  1  0.30749027  0.40165911  0.84154507  1.0
  Cl  Cl5  1  0.62890864  0.47315870  0.09704561  1.0
  Cl  Cl6  1  0.87476852  0.72163848  0.59082597  1.0
  Cl  Cl7  1  0.39755029  0.15491737  0.21788264  1.0
