# generated using pymatgen
data_NaCl
_symmetry_space_group_name_H-M   'P 1'
_cell_length_a   4.72422526
_cell_length_b   15.85233758
_cell_length_c   4.67069913
_cell_angle_alpha   90.00000000
_cell_angle_beta   90.00000000
_cell_angle_gamma   90.00000000
_symmetry_Int_Tables_number   1
_chemical_formula_structural   NaCl
_chemical_formula_sum   'Na4 Cl4'
_cell_volume   349.78872149
_cell_formula_units_Z   4
loop_
 _symmetry_equiv_pos_site_id
 _symmetry_equiv_pos_as_xyz
  1  'x, y, z'
loop_
 _atom_site_type_symbol
 _atom_site_label
 _atom_site_symmetry_multiplicity
 _atom_site_fract_x
 _atom_site_fract_y
 _atom_site_fract_z
 _atom_site_occupancy
  Na  Na0  1  0.00000000  0.11413833  0.56931014  1.0
  Na  Na1  1  0.50000000  0.55525005  0.50509532  1.0
  Na  Na2  1  0.00000000  0.17235726  0.98242452  1.0
  Na  Na3  1  0.50000000  0.30106341  0.21262253  1.0
  Cl  Cl4  1  0.44507400  0.47627413  0.24669492  1.0
  Cl  Cl5  1  0.20321190  0.50501130  0.26779976  1.0
  Cl  Cl6  1  0.14092337  0.61316645  0.03059570  1.0
  Cl  Cl7  1  0.38649402  0.82001656  0.90194261  1.0
