# generated using pymatgen
data_NaCl
_symmetry_space_group_name_H-M   'P 1'
_cell_length_a   5.25533555
_cell_length_b   16.12927734
_cell_length_c   2.97576347
_cell_angle_alpha   90.00000000
_cell_angle_beta   90.00000000
_cell_angle_gamma   90.00000000
_symmetry_Int_Tables_number   1
_chemical_formula_structural   NaCl
_chemical_formula_sum   'Na4 Cl4'
_cell_volume   252.23989004
_cell_formula_units_Z   4
loop_
 _symmetry_equiv_pos_site_id
 _symmetry_equiv_pos_as_xyz
  1  'x, y, z'
loop_
 _atom_site_type_symbol
 _atom_site_label
 _atom_site_symmetry_multiplicity
 _atom_site_fract_x
 _atom_site_fract_y
 _atom_site_fract_z
 _atom_site_occupancy
  Na  Na0  1  0.00000000  0.10175785  0.65313938  1.0
  Na  Na1  1  0.00000000  0.58972563  0.55997027  1.0
  Na  Na2  1  0.50000000  0.21905472  0.99723834  1.0
  Na  Na3  1  0.50000000  0.37266024  0.25477127  1.0
  Cl  Cl4  1  0.41341855  0.50575066  0.25831001  1.0
  Cl  Cl5  1  0.72393115  0.36700558  0.41733459  1.0
  Cl  Cl6  1  0.56721781  0.58983330  0.10940674  1.0
  Cl  Cl7  1  0.33041961  0.80636167  0.87905632  1.0
