# generated using pymatgen
data_NaCl
_symmetry_space_group_name_H-M   'P 1'
_cell_length_a   5.27718227
_cell_length_b   5.27718227
_cell_length_c   4.77992928
_cell_angle_alpha   90.00000000
_cell_angle_beta   90.00000000
_cell_angle_gamma   90.00000000
_symmetry_Int_Tables_number   1
_chemical_formula_structural   NaCl
_chemical_formula_sum   'Na4 Cl4'
_cell_volume   133.11459050
_cell_formula_units_Z   4
loop_
 _symmetry_equiv_pos_site_id
 _symmetry_equiv_pos_as_xyz
  1  'x, y, z'
loop_
 _atom_site_type_symbol
 _atom_site_label
 _atom_site_symmetry_multiplicity
 _atom_site_fract_x
 _atom_site_fract_y
 _atom_site_fract_z
 _atom_site_occupancy
  Na  Na0  1  0.34685187  0.36114928  0.47469272  1.0
  Na  Na1  1  0.32569301  0.54937996  0.07775151  1.0
  Na  Na2  1  0.79502624  0.56257550  0.60211392  1.0
  Na  Na3  1  0.93344317  0.62254400  0.90282851  1.0
  Cl  Cl4  1  0.20608788  0.25023885  0.19340756  1.0
  Cl  Cl5  1  0.85259675  0.45693374  0.16502590  1.0
  Cl  Cl6  1  0.53495173  0.57865166  0.38057461  1.0
  Cl  Cl7  1  0.85156741  0.65945036  0.24977230  1.0
