# generated using pymatgen
data_NaCl
_symmetry_space_group_name_H-M   'P 1'
_cell_length_a   5.43791494
_cell_length_b   5.43791494
_cell_length_c   5.43791494
_cell_angle_alpha   90.00000000
_cell_angle_beta   90.00000000
_cell_angle_gamma   90.00000000
_symmetry_Int_Tables_number   1
_chemical_formula_structural   NaCl
_chemical_formula_sum   'Na4 Cl4'
_cell_volume   160.80414165
_cell_formula_units_Z   4
loop_
 _symmetry_equiv_pos_site_id
 _symmetry_equiv_pos_as_xyz
  1  'x, y, z'
loop_
 _atom_site_type_symbol
 _atom_site_label
 _atom_site_symmetry_multiplicity
 _atom_site_fract_x
 _atom_site_fract_y
 _atom_site_fract_z
 _atom_site_occupancy
  Na  Na0  1  0.38055565  0.38055565  0.38055565  1.0
  Na  Na1  1  0.89222740  0.39222740  0.10777260  1.0
  Na  Na2  1  0.48463737  0.01536263  0.98463737  1.0
  Na  Na3  1  0.88148943  0.11851057  0.61851057  1.0
  Cl  Cl4  1  0.11174635  0.11174635  0.11174635  1.0
  Cl  Cl5  1  0.27306841  0.77306841  0.72693159  1.0
  Cl  Cl6  1  0.36074372  0.13925628  0.86074372  1.0
  Cl  Cl7  1  0.73502617  0.26497383  0.76497383  1.0
