# generated using pymatgen
data_NaCl
_symmetry_space_group_name_H-M   'P 1'
_cell_length_a   8.30665837
_cell_length_b   8.30665837
_cell_length_c   5.10080658
_cell_angle_alpha   90.00000000
_cell_angle_beta   90.00000000
_cell_angle_gamma   90.00000000
_symmetry_Int_Tables_number   1
_chemical_formula_structural   NaCl
_chemical_formula_sum   'Na4 Cl4'
_cell_volume   351.95857819
_cell_formula_units_Z   4
loop_
 _symmetry_equiv_pos_site_id
 _symmetry_equiv_pos_as_xyz
  1  'x, y, z'
loop_
 _atom_site_type_symbol
 _atom_site_label
 _atom_site_symmetry_multiplicity
 _atom_site_fract_x
 _atom_site_fract_y
 _atom_site_fract_z
 _atom_site_occupancy
  Na  Na0  1  0.22633550  0.46278746  0.71518341  1.0
  Na  Na1  1  0.25956616  0.49672583  0.14325480  1.0
  Na  Na2  1  0.73540406  0.58789350  0.73085010  1.0
  Na  Na3  1  0.69441974  0.79657370  0.97418576  1.0
  Cl  Cl4  1  0.11573131  0.49758442  0.02678673  1.0
  Cl  Cl5  1  0.60845310  0.22619172  0.19247354  1.0
  Cl  Cl6  1  0.48298572  0.61143242  0.28716384  1.0
  Cl  Cl7  1  0.83461476  0.31844612  0.93660759  1.0
