# generated using pymatgen
data_NaCl
_symmetry_space_group_name_H-M   'P 1'
_cell_length_a   4.91364856
_cell_length_b   4.91364856
_cell_length_c   4.91364856
_cell_angle_alpha   90.00000000
_cell_angle_beta   90.00000000
_cell_angle_gamma   90.00000000
_symmetry_Int_Tables_number   1
_chemical_formula_structural   NaCl
_chemical_formula_sum   'Na4 Cl4'
_cell_volume   118.63484668
_cell_formula_units_Z   4
loop_
 _symmetry_equiv_pos_site_id
 _symmetry_equiv_pos_as_xyz
  1  'x, y, z'
loop_
 _atom_site_type_symbol
 _atom_site_label
 _atom_site_symmetry_multiplicity
 _atom_site_fract_x
 _atom_site_fract_y
 _atom_site_fract_z
 _atom_site_occupancy
  Na  Na0  1  0.48758500  0.48758500  0.48758500  1.0
  Na  Na1  1  0.82614278  0.32614278  0.17385722  1.0
  Na  Na2  1  0.54432223  0.95567777  0.04432223  1.0
  Na  Na3  1  0.64446054  0.35553946  0.85553946  1.0
  Cl  Cl4  1  0.28051643  0.28051643  0.28051643  1.0
  Cl  Cl5  1  0.19884576  0.69884576  0.80115424  1.0
  Cl  Cl6  1  0.21159233  0.28840767  0.71159233  1.0
  Cl  Cl7  1  0.07572587  0.92427413  0.42427413  1.0
