# generated using pymatgen
data_NaCl
_symmetry_space_group_name_H-M   'P 1'
_cell_length_a   5.95378314
_cell_length_b   17.61238713
_cell_length_c   5.03819421
_cell_angle_alpha   90.00000000
_cell_angle_beta   135.00327462
_cell_angle_gamma   90.00000000
_symmetry_Int_Tables_number   1
_chemical_formula_structural   NaCl
_chemical_formula_sum   'Na4 Cl4'
_cell_volume   373.54791686
_cell_formula_units_Z   4
loop_
 _symmetry_equiv_pos_site_id
 _symmetry_equiv_pos_as_xyz
  1  'x, y, z'
loop_
 _atom_site_type_symbol
 _atom_site_label
 _atom_site_symmetry_multiplicity
 _atom_site_fract_x
 _atom_site_fract_y
 _atom_site_fract_z
 _atom_site_occupancy
  Na  Na0  1  0.07792766  0.06838042  0.68900332  1.0
  Na  Na1  1  0.74837866  0.43896224  0.54480753  1.0
  Na  Na2  1  0.30302590  0.64808839  0.92048438  1.0
  Na  Na3  1  0.86841265  0.75663947  0.30958682  1.0
  Cl  Cl4  1  0.41053995  0.52171313  0.26130490  1.0
  Cl  Cl5  1  0.18264421  0.38426353  0.24966543  1.0
  Cl  Cl6  1  0.13850915  0.84027256  0.52756907  1.0
  Cl  Cl7  1  0.19431902  0.75563830  0.36357289  1.0
