# generated using pymatgen
data_NaCl
_symmetry_space_group_name_H-M   'P 1'
_cell_length_a   5.05572006
_cell_length_b   16.88481509
_cell_length_c   3.85044382
_cell_angle_alpha   90.00000000
_cell_angle_beta   90.00000000
_cell_angle_gamma   90.00000000
_symmetry_Int_Tables_number   1
_chemical_formula_structural   NaCl
_chemical_formula_sum   'Na4 Cl4'
_cell_volume   328.69274533
_cell_formula_units_Z   4
loop_
 _symmetry_equiv_pos_site_id
 _symmetry_equiv_pos_as_xyz
  1  'x, y, z'
loop_
 _atom_site_type_symbol
 _atom_site_label
 _atom_site_symmetry_multiplicity
 _atom_site_fract_x
 _atom_site_fract_y
 _atom_site_fract_z
 _atom_site_occupancy
  Na  Na0  1  0.00000000  0.00000000  0.49349930  1.0
  Na  Na1  1  0.50000000  0.50000000  0.52191926  1.0
  Na  Na2  1  0.00000000  0.50000000  0.95317017  1.0
  Na  Na3  1  0.50000000  0.00000000  0.15884881  1.0
  Cl  Cl4  1  0.25436219  0.51862062  0.52861596  1.0
  Cl  Cl5  1  0.67414632  0.43907100  0.68344732  1.0
  Cl  Cl6  1  0.86376491  0.88560417  0.32105485  1.0
  Cl  Cl7  1  0.13216315  0.08250025  0.09734038  1.0
