# generated using pymatgen
data_NaCl
_symmetry_space_group_name_H-M   'P 1'
_cell_length_a   9.11685239
_cell_length_b   12.29557440
_cell_length_c   3.50896517
_cell_angle_alpha   90.00000000
_cell_angle_beta   90.00000000
_cell_angle_gamma   90.00000000
_symmetry_Int_Tables_number   1
_chemical_formula_structural   NaCl
_chemical_formula_sum   'Na4 Cl4'
_cell_volume   393.34424709
_cell_formula_units_Z   4
loop_
 _symmetry_equiv_pos_site_id
 _symmetry_equiv_pos_as_xyz
  1  'x, y, z'
loop_
 _atom_site_type_symbol
 _atom_site_label
 _atom_site_symmetry_multiplicity
 _atom_site_fract_x
 _atom_site_fract_y
 _atom_site_fract_z
 _atom_site_occupancy
  Na  Na0  1  0.00000000  0.00000000  0.68086353  1.0
  Na  Na1  1  0.50000000  0.50000000  0.09165238  1.0
  Na  Na2  1  0.00000000  0.50000000  0.80346780  1.0
  Na  Na3  1  0.50000000  0.00000000  0.38514139  1.0
  Cl  Cl4  1  0.11893468  0.52817556  0.16474742  1.0
  Cl  Cl5  1  0.74494077  0.28348699  0.68889749  1.0
  Cl  Cl6  1  0.05492324  0.07052586  0.11554849  1.0
  Cl  Cl7  1  0.81729843  0.43652987  0.21629337  1.0
