# generated using pymatgen
data_NaCl
_symmetry_space_group_name_H-M   'P 1'
_cell_length_a   5.28514584
_cell_length_b   5.28514584
_cell_length_c   9.70557622
_cell_angle_alpha   90.00000000
_cell_angle_beta   90.00000000
_cell_angle_gamma   90.00000000
_symmetry_Int_Tables_number   1
_chemical_formula_structural   NaCl
_chemical_formula_sum   'Na4 Cl4'
_cell_volume   271.10359479
_cell_formula_units_Z   4
loop_
 _symmetry_equiv_pos_site_id
 _symmetry_equiv_pos_as_xyz
  1  'x, y, z'
loop_
 _atom_site_type_symbol
 _atom_site_label
 _atom_site_symmetry_multiplicity
 _atom_site_fract_x
 _atom_site_fract_y
 _atom_site_fract_z
 _atom_site_occupancy
  Na  Na0  1  0.15279199  0.41551280  0.77444790  1.0
  Na  Na1  1  0.26593678  0.67720346  0.05015096  1.0
  Na  Na2  1  0.82382175  0.42971433  0.12213617  1.0
  Na  Na3  1  0.93185005  0.72409563  0.48427298  1.0
  Cl  Cl4  1  0.06545122  0.34891903  0.02154336  1.0
  Cl  Cl5  1  0.77674906  0.23733123  0.20381607  1.0
  Cl  Cl6  1  0.56039313  0.46694389  0.75087885  1.0
  Cl  Cl7  1  0.96335041  0.47256776  0.63380404  1.0
