# generated using pymatgen
data_NaCl
_symmetry_space_group_name_H-M   'P 1'
_cell_length_a   6.21017392
_cell_length_b   6.21017392
_cell_length_c   6.21017392
_cell_angle_alpha   90.00000000
_cell_angle_beta   90.00000000
_cell_angle_gamma   90.00000000
_symmetry_Int_Tables_number   1
_chemical_formula_structural   NaCl
_chemical_formula_sum   'Na4 Cl4'
_cell_volume   239.50318277
_cell_formula_units_Z   4
loop_
 _symmetry_equiv_pos_site_id
 _symmetry_equiv_pos_as_xyz
  1  'x, y, z'
loop_
 _atom_site_type_symbol
 _atom_site_label
 _atom_site_symmetry_multiplicity
 _atom_site_fract_x
 _atom_site_fract_y
 _atom_site_fract_z
 _atom_site_occupancy
  Na  Na0  1  0.41346967  0.41346967  0.41346967  1.0
  Na  Na1  1  0.82370169  0.32370169  0.17629831  1.0
  Na  Na2  1  0.45976913  0.04023087  0.95976913  1.0
  Na  Na3  1  0.69667044  0.30332956  0.80332956  1.0
  Cl  Cl4  1  0.21549383  0.21549383  0.21549383  1.0
  Cl  Cl5  1  0.43619927  0.93619927  0.56380073  1.0
  Cl  Cl6  1  0.00165760  0.49834240  0.50165760  1.0
  Cl  Cl7  1  0.15017465  0.84982535  0.34982535  1.0
