# generated using pymatgen
data_NaCl
_symmetry_space_group_name_H-M   'P 1'
_cell_length_a   2.01498199
_cell_length_b   17.93695878
_cell_length_c   10.63224999
_cell_angle_alpha   90.00000000
_cell_angle_beta   23.08712307
_cell_angle_gamma   90.00000000
_symmetry_Int_Tables_number   1
_chemical_formula_structural   NaCl
_chemical_formula_sum   'Na4 Cl4'
_cell_volume   150.68695265
_cell_formula_units_Z   4
loop_
 _symmetry_equiv_pos_site_id
 _symmetry_equiv_pos_as_xyz
  1  'x, y, z'
loop_
 _atom_site_type_symbol
 _atom_site_label
 _atom_site_symmetry_multiplicity
 _atom_site_fract_x
 _atom_site_fract_y
 _atom_site_fract_z
 _atom_site_occupancy
  Na  Na0  1  0.60063887  0.31747309  0.32069125  1.0
  Na  Na1  1  0.26748996  0.06102735  0.91301591  1.0
  Na  Na2  1  0.61000579  0.07807240  0.48373469  1.0
  Na  Na3  1  0.77500803  0.18396872  0.54000655  1.0
  Cl  Cl4  1  0.17861746  0.45399740  0.33168745  1.0
  Cl  Cl5  1  0.73072588  0.78675712  0.13517847  1.0
  Cl  Cl6  1  0.85344814  0.27414177  0.81460076  1.0
  Cl  Cl7  1  0.48323880  0.21087335  0.00277086  1.0
