# generated using pymatgen
data_NaCl
_symmetry_space_group_name_H-M   'P 1'
_cell_length_a   3.14811755
_cell_length_b   14.69028359
_cell_length_c   5.66999573
_cell_angle_alpha   90.00000000
_cell_angle_beta   90.00000000
_cell_angle_gamma   90.00000000
_symmetry_Int_Tables_number   1
_chemical_formula_structural   NaCl
_chemical_formula_sum   'Na4 Cl4'
_cell_volume   262.21881597
_cell_formula_units_Z   4
loop_
 _symmetry_equiv_pos_site_id
 _symmetry_equiv_pos_as_xyz
  1  'x, y, z'
loop_
 _atom_site_type_symbol
 _atom_site_label
 _atom_site_symmetry_multiplicity
 _atom_site_fract_x
 _atom_site_fract_y
 _atom_site_fract_z
 _atom_site_occupancy
  Na  Na0  1  0.02701802  0.17686533  0.49929655  1.0
  Na  Na1  1  0.12422374  0.47789704  0.94041574  1.0
  Na  Na2  1  0.41828757  0.88475506  0.96609623  1.0
  Na  Na3  1  0.07833216  0.74777068  0.38250851  1.0
  Cl  Cl4  1  0.29218553  0.45075425  0.48594087  1.0
  Cl  Cl5  1  0.67809732  0.48108274  0.32521300  1.0
  Cl  Cl6  1  0.18754012  0.73186323  0.69961618  1.0
  Cl  Cl7  1  0.94401470  0.89510565  0.35091954  1.0
