# generated using pymatgen
data_NaCl
_symmetry_space_group_name_H-M   'P 1'
_cell_length_a   5.32287371
_cell_length_b   16.85093357
_cell_length_c   6.04076310
_cell_angle_alpha   90.00000000
_cell_angle_beta   154.54134909
_cell_angle_gamma   90.00000000
_symmetry_Int_Tables_number   1
_chemical_formula_structural   NaCl
_chemical_formula_sum   'Na4 Cl4'
_cell_volume   232.91023443
_cell_formula_units_Z   4
loop_
 _symmetry_equiv_pos_site_id
 _symmetry_equiv_pos_as_xyz
  1  'x, y, z'
loop_
 _atom_site_type_symbol
 _atom_site_label
 _atom_site_symmetry_multiplicity
 _atom_site_fract_x
 _atom_site_fract_y
 _atom_site_fract_z
 _atom_site_occupancy
  Na  Na0  1  0.32673828  0.16549997  0.41669613  1.0
  Na  Na1  1  0.64201198  0.57458914  0.57797654  1.0
  Na  Na2  1  0.95282400  0.95737547  0.89388818  1.0
  Na  Na3  1  0.75703324  0.63812429  0.22083474  1.0
  Cl  Cl4  1  0.15992091  0.46583171  0.21183629  1.0
  Cl  Cl5  1  0.29436026  0.34283345  0.12086885  1.0
  Cl  Cl6  1  0.36230490  0.75944528  0.65780695  1.0
  Cl  Cl7  1  0.73200232  0.53961865  0.38662719  1.0
