# generated using pymatgen
data_NaCl
_symmetry_space_group_name_H-M   'P 1'
_cell_length_a   6.05747330
_cell_length_b   6.05747330
_cell_length_c   5.22070594
_cell_angle_alpha   90.00000000
_cell_angle_beta   90.00000000
_cell_angle_gamma   90.00000000
_symmetry_Int_Tables_number   1
_chemical_formula_structural   NaCl
_chemical_formula_sum   'Na4 Cl4'
_cell_volume   191.56327316
_cell_formula_units_Z   4
loop_
 _symmetry_equiv_pos_site_id
 _symmetry_equiv_pos_as_xyz
  1  'x, y, z'
loop_
 _atom_site_type_symbol
 _atom_site_label
 _atom_site_symmetry_multiplicity
 _atom_site_fract_x
 _atom_site_fract_y
 _atom_site_fract_z
 _atom_site_occupancy
  Na  Na0  1  0.11769986  0.28243170  0.69654625  1.0
  Na  Na1  1  0.28641017  0.56399133  0.96689949  1.0
  Na  Na2  1  0.42454168  0.47647681  0.47442047  1.0
  Na  Na3  1  0.94062524  0.57682865  0.02908731  1.0
  Cl  Cl4  1  0.00848252  0.34364421  0.16528807  1.0
  Cl  Cl5  1  0.81085786  0.29040904  0.18535784  1.0
  Cl  Cl6  1  0.24596962  0.35254683  0.22971551  1.0
  Cl  Cl7  1  0.76909966  0.92769533  0.13836076  1.0
