# generated using pymatgen
data_NaCl
_symmetry_space_group_name_H-M   'P 1'
_cell_length_a   5.25675042
_cell_length_b   13.53683065
_cell_length_c   3.43493579
_cell_angle_alpha   90.00000000
_cell_angle_beta   90.00000000
_cell_angle_gamma   90.00000000
_symmetry_Int_Tables_number   1
_chemical_formula_structural   NaCl
_chemical_formula_sum   'Na4 Cl4'
_cell_volume   244.42913844
_cell_formula_units_Z   4
loop_
 _symmetry_equiv_pos_site_id
 _symmetry_equiv_pos_as_xyz
  1  'x, y, z'
loop_
 _atom_site_type_symbol
 _atom_site_label
 _atom_site_symmetry_multiplicity
 _atom_site_fract_x
 _atom_site_fract_y
 _atom_site_fract_z
 _atom_site_occupancy
  Na  Na0  1  0.23237338  0.29555255  0.57715968  1.0
  Na  Na1  1  0.74964174  0.59053817  0.10327160  1.0
  Na  Na2  1  0.44709699  0.08483807  0.75586335  1.0
  Na  Na3  1  0.88141560  0.66261403  0.43334265  1.0
  Cl  Cl4  1  0.51002122  0.40965225  0.10412274  1.0
  Cl  Cl5  1  0.27092744  0.26745831  0.14739122  1.0
  Cl  Cl6  1  0.41237507  0.21538372  0.04915093  1.0
  Cl  Cl7  1  0.94112790  0.56043314  0.00063971  1.0
