# generated using pymatgen
data_NaCl
_symmetry_space_group_name_H-M   'P 1'
_cell_length_a   2.06088704
_cell_length_b   9.75690414
_cell_length_c   6.07599156
_cell_angle_alpha   90.00000000
_cell_angle_beta   90.00000000
_cell_angle_gamma   90.00000000
_symmetry_Int_Tables_number   1
_chemical_formula_structural   NaCl
_chemical_formula_sum   'Na4 Cl4'
_cell_volume   122.17529272
_cell_formula_units_Z   4
loop_
 _symmetry_equiv_pos_site_id
 _symmetry_equiv_pos_as_xyz
  1  'x, y, z'
loop_
 _atom_site_type_symbol
 _atom_site_label
 _atom_site_symmetry_multiplicity
 _atom_site_fract_x
 _atom_site_fract_y
 _atom_site_fract_z
 _atom_site_occupancy
  Na  Na0  1  0.71980605  0.21901655  0.31604115  1.0
  Na  Na1  1  0.55987984  0.41293153  0.01886584  1.0
  Na  Na2  1  0.42164504  0.02052672  0.46066208  1.0
  Na  Na3  1  0.85841640  0.71879843  0.50798219  1.0
  Cl  Cl4  1  0.43278405  0.22215565  0.07981219  1.0
  Cl  Cl5  1  0.42715745  0.32450315  0.31780174  1.0
  Cl  Cl6  1  0.33701573  0.59750880  0.90305225  1.0
  Cl  Cl7  1  0.20936876  0.97988473  0.28581706  1.0
