# generated using pymatgen
data_NaCl
_symmetry_space_group_name_H-M   'P 1'
_cell_length_a   4.63421695
_cell_length_b   4.63421695
_cell_length_c   9.81057320
_cell_angle_alpha   90.00000000
_cell_angle_beta   90.00000000
_cell_angle_gamma   90.00000000
_symmetry_Int_Tables_number   1
_chemical_formula_structural   NaCl
_chemical_formula_sum   'Na4 Cl4'
_cell_volume   210.69154374
_cell_formula_units_Z   4
loop_
 _symmetry_equiv_pos_site_id
 _symmetry_equiv_pos_as_xyz
  1  'x, y, z'
loop_
 _atom_site_type_symbol
 _atom_site_label
 _atom_site_symmetry_multiplicity
 _atom_site_fract_x
 _atom_site_fract_y
 _atom_site_fract_z
 _atom_site_occupancy
  Na  Na0  1  0.17549816  0.05886276  0.62267890  1.0
  Na  Na1  1  0.28592544  0.69369235  0.95921190  1.0
  Na  Na2  1  0.82449575  0.95645146  0.74958730  1.0
  Na  Na3  1  0.74811243  0.75242564  0.04584528  1.0
  Cl  Cl4  1  0.48175754  0.45001031  0.18892433  1.0
  Cl  Cl5  1  0.38830512  0.30555125  0.31323452  1.0
  Cl  Cl6  1  0.57668512  0.63267984  0.78673660  1.0
  Cl  Cl7  1  0.83511389  0.37956849  0.05112030  1.0
