# generated using pymatgen
data_NaCl
_symmetry_space_group_name_H-M   'P 1'
_cell_length_a   6.29844304
_cell_length_b   12.68936870
_cell_length_c   2.01049559
_cell_angle_alpha   90.00000000
_cell_angle_beta   142.55128617
_cell_angle_gamma   90.00000000
_symmetry_Int_Tables_number   1
_chemical_formula_structural   NaCl
_chemical_formula_sum   'Na4 Cl4'
_cell_volume   97.70490939
_cell_formula_units_Z   4
loop_
 _symmetry_equiv_pos_site_id
 _symmetry_equiv_pos_as_xyz
  1  'x, y, z'
loop_
 _atom_site_type_symbol
 _atom_site_label
 _atom_site_symmetry_multiplicity
 _atom_site_fract_x
 _atom_site_fract_y
 _atom_site_fract_z
 _atom_site_occupancy
  Na  Na0  1  0.07369839  0.00000000  0.59900825  1.0
  Na  Na1  1  0.29676434  0.50000000  0.46439642  1.0
  Na  Na2  1  0.53970246  0.00000000  0.76437140  1.0
  Na  Na3  1  0.90423455  0.50000000  0.67209845  1.0
  Cl  Cl4  1  0.19516822  0.37513863  0.17802931  1.0
  Cl  Cl5  1  0.27032525  0.34418633  0.69662470  1.0
  Cl  Cl6  1  0.02547429  0.21843908  0.58411149  1.0
  Cl  Cl7  1  0.84408316  0.60241926  0.94998737  1.0
