# generated using pymatgen
data_NaCl
_symmetry_space_group_name_H-M   'P 1'
_cell_length_a   5.40502036
_cell_length_b   15.85500086
_cell_length_c   2.86815373
_cell_angle_alpha   90.00000000
_cell_angle_beta   90.00000000
_cell_angle_gamma   90.00000000
_symmetry_Int_Tables_number   1
_chemical_formula_structural   NaCl
_chemical_formula_sum   'Na4 Cl4'
_cell_volume   245.79102998
_cell_formula_units_Z   4
loop_
 _symmetry_equiv_pos_site_id
 _symmetry_equiv_pos_as_xyz
  1  'x, y, z'
loop_
 _atom_site_type_symbol
 _atom_site_label
 _atom_site_symmetry_multiplicity
 _atom_site_fract_x
 _atom_site_fract_y
 _atom_site_fract_z
 _atom_site_occupancy
  Na  Na0  1  0.00000000  0.00000000  0.64208704  1.0
  Na  Na1  1  0.50000000  0.50000000  0.04562923  1.0
  Na  Na2  1  0.00000000  0.50000000  0.92761366  1.0
  Na  Na3  1  0.50000000  0.00000000  0.73208662  1.0
  Cl  Cl4  1  0.40054643  0.57609836  0.28396531  1.0
  Cl  Cl5  1  0.78494854  0.46252273  0.78695709  1.0
  Cl  Cl6  1  0.01488182  0.07403471  0.56996592  1.0
  Cl  Cl7  1  0.79736255  0.21063925  0.95464449  1.0
