# generated using pymatgen
data_NaCl
_symmetry_space_group_name_H-M   'P 1'
_cell_length_a   6.00148097
_cell_length_b   6.00148097
_cell_length_c   10.09530460
_cell_angle_alpha   90.00000000
_cell_angle_beta   90.00000000
_cell_angle_gamma   90.00000000
_symmetry_Int_Tables_number   1
_chemical_formula_structural   NaCl
_chemical_formula_sum   'Na4 Cl4'
_cell_volume   363.61039786
_cell_formula_units_Z   4
loop_
 _symmetry_equiv_pos_site_id
 _symmetry_equiv_pos_as_xyz
  1  'x, y, z'
loop_
 _atom_site_type_symbol
 _atom_site_label
 _atom_site_symmetry_multiplicity
 _atom_site_fract_x
 _atom_site_fract_y
 _atom_site_fract_z
 _atom_site_occupancy
  Na  Na0  1  0.25806728  0.11225282  0.44407183  1.0
  Na  Na1  1  0.41770966  0.38726259  0.64309896  1.0
  Na  Na2  1  0.77830870  0.44318751  0.00726005  1.0
  Na  Na3  1  0.85975199  0.42127239  0.26181416  1.0
  Cl  Cl4  1  0.23376065  0.25303073  0.35691857  1.0
  Cl  Cl5  1  0.76495083  0.68542149  0.25724159  1.0
  Cl  Cl6  1  0.85795642  0.90095411  0.67940367  1.0
  Cl  Cl7  1  0.94565810  0.83790512  0.61712582  1.0
