# generated using pymatgen
data_NaCl
_symmetry_space_group_name_H-M   'P 1'
_cell_length_a   7.15363510
_cell_length_b   7.15363510
_cell_length_c   2.05559262
_cell_angle_alpha   90.00000000
_cell_angle_beta   90.00000000
_cell_angle_gamma   90.00000000
_symmetry_Int_Tables_number   1
_chemical_formula_structural   NaCl
_chemical_formula_sum   'Na4 Cl4'
_cell_volume   105.19391455
_cell_formula_units_Z   4
loop_
 _symmetry_equiv_pos_site_id
 _symmetry_equiv_pos_as_xyz
  1  'x, y, z'
loop_
 _atom_site_type_symbol
 _atom_site_label
 _atom_site_symmetry_multiplicity
 _atom_site_fract_x
 _atom_site_fract_y
 _atom_site_fract_z
 _atom_site_occupancy
  Na  Na0  1  0.14864148  0.24821779  0.65190518  1.0
  Na  Na1  1  0.35168216  0.68383227  0.88869053  1.0
  Na  Na2  1  0.31855952  0.43835426  0.07082277  1.0
  Na  Na3  1  0.99821250  0.64063580  0.44500826  1.0
  Cl  Cl4  1  0.08584739  0.34176034  0.29117765  1.0
  Cl  Cl5  1  0.87457244  0.30978412  0.14253396  1.0
  Cl  Cl6  1  0.41883564  0.53597532  0.62904926  1.0
  Cl  Cl7  1  0.94127099  0.46983494  0.61268293  1.0
