# generated using pymatgen
data_NaCl
_symmetry_space_group_name_H-M   'P 1'
_cell_length_a   6.52207800
_cell_length_b   6.52207800
_cell_length_c   6.52207800
_cell_angle_alpha   90.00000000
_cell_angle_beta   90.00000000
_cell_angle_gamma   90.00000000
_symmetry_Int_Tables_number   1
_chemical_formula_structural   NaCl
_chemical_formula_sum   'Na4 Cl4'
_cell_volume   277.43290230
_cell_formula_units_Z   4
loop_
 _symmetry_equiv_pos_site_id
 _symmetry_equiv_pos_as_xyz
  1  'x, y, z'
loop_
 _atom_site_type_symbol
 _atom_site_label
 _atom_site_symmetry_multiplicity
 _atom_site_fract_x
 _atom_site_fract_y
 _atom_site_fract_z
 _atom_site_occupancy
  Na  Na0  1  0.04327470  0.04327470  0.04327470  1.0
  Na  Na1  1  0.73832577  0.23832577  0.26167423  1.0
  Na  Na2  1  0.09360889  0.40639111  0.59360889  1.0
  Na  Na3  1  0.87013514  0.12986486  0.62986486  1.0
  Cl  Cl4  1  0.40705162  0.40705162  0.40705162  1.0
  Cl  Cl5  1  0.25526723  0.75526723  0.74473277  1.0
  Cl  Cl6  1  0.46271200  0.03728800  0.96271200  1.0
  Cl  Cl7  1  0.20087082  0.79912918  0.29912918  1.0
