# generated using pymatgen
data_NaCl
_symmetry_space_group_name_H-M   'P 1'
_cell_length_a   5.99829774
_cell_length_b   5.99829774
_cell_length_c   7.36749919
_cell_angle_alpha   90.00000000
_cell_angle_beta   90.00000000
_cell_angle_gamma   90.00000000
_symmetry_Int_Tables_number   1
_chemical_formula_structural   NaCl
_chemical_formula_sum   'Na4 Cl4'
_cell_volume   265.07949540
_cell_formula_units_Z   4
loop_
 _symmetry_equiv_pos_site_id
 _symmetry_equiv_pos_as_xyz
  1  'x, y, z'
loop_
 _atom_site_type_symbol
 _atom_site_label
 _atom_site_symmetry_multiplicity
 _atom_site_fract_x
 _atom_site_fract_y
 _atom_site_fract_z
 _atom_site_occupancy
  Na  Na0  1  0.20954601  0.34919412  0.57656679  1.0
  Na  Na1  1  0.19894856  0.56835855  0.99490285  1.0
  Na  Na2  1  0.36178665  0.60989471  0.45643568  1.0
  Na  Na3  1  0.96361640  0.78206060  0.88733012  1.0
  Cl  Cl4  1  0.49736162  0.39316237  0.13308478  1.0
  Cl  Cl5  1  0.81068835  0.26861293  0.24164840  1.0
  Cl  Cl6  1  0.31238343  0.54852948  0.22205100  1.0
  Cl  Cl7  1  0.86838144  0.57169850  0.08513117  1.0
