# generated using pymatgen
data_NaCl
_symmetry_space_group_name_H-M   'P 1'
_cell_length_a   5.57407491
_cell_length_b   5.57407491
_cell_length_c   5.57407491
_cell_angle_alpha   90.00000000
_cell_angle_beta   90.00000000
_cell_angle_gamma   90.00000000
_symmetry_Int_Tables_number   1
_chemical_formula_structural   NaCl
_chemical_formula_sum   'Na4 Cl4'
_cell_volume   173.18824156
_cell_formula_units_Z   4
loop_
 _symmetry_equiv_pos_site_id
 _symmetry_equiv_pos_as_xyz
  1  'x, y, z'
loop_
 _atom_site_type_symbol
 _atom_site_label
 _atom_site_symmetry_multiplicity
 _atom_site_fract_x
 _atom_site_fract_y
 _atom_site_fract_z
 _atom_site_occupancy
  Na  Na0  1  0.10641102  0.10641102  0.10641102  1.0
  Na  Na1  1  0.22596882  0.72596882  0.77403118  1.0
  Na  Na2  1  0.91074748  0.58925252  0.41074748  1.0
  Na  Na3  1  0.90830552  0.09169448  0.59169448  1.0
  Cl  Cl4  1  0.63178298  0.63178298  0.63178298  1.0
  Cl  Cl5  1  0.43980690  0.93980690  0.56019310  1.0
  Cl  Cl6  1  0.32992384  0.17007616  0.82992384  1.0
  Cl  Cl7  1  0.41177829  0.58822171  0.08822171  1.0
