# generated using pymatgen
data_NaCl
_symmetry_space_group_name_H-M   'P 1'
_cell_length_a   6.42700411
_cell_length_b   6.42700411
_cell_length_c   6.42700411
_cell_angle_alpha   90.00000000
_cell_angle_beta   90.00000000
_cell_angle_gamma   90.00000000
_symmetry_Int_Tables_number   1
_chemical_formula_structural   NaCl
_chemical_formula_sum   'Na4 Cl4'
_cell_volume   265.47628579
_cell_formula_units_Z   4
loop_
 _symmetry_equiv_pos_site_id
 _symmetry_equiv_pos_as_xyz
  1  'x, y, z'
loop_
 _atom_site_type_symbol
 _atom_site_label
 _atom_site_symmetry_multiplicity
 _atom_site_fract_x
 _atom_site_fract_y
 _atom_site_fract_z
 _atom_site_occupancy
  Na  Na0  1  0.00089349  0.00089349  0.00089349  1.0
  Na  Na1  1  0.81767825  0.31767825  0.18232175  1.0
  Na  Na2  1  0.93146439  0.56853561  0.43146439  1.0
  Na  Na3  1  0.95294122  0.04705878  0.54705878  1.0
  Cl  Cl4  1  0.82096242  0.82096242  0.82096242  1.0
  Cl  Cl5  1  0.23608585  0.73608585  0.76391415  1.0
  Cl  Cl6  1  0.28718625  0.21281375  0.78718625  1.0
  Cl  Cl7  1  0.32925051  0.67074949  0.17074949  1.0
