# generated using pymatgen
data_NaCl
_symmetry_space_group_name_H-M   'P 1'
_cell_length_a   6.21986756
_cell_length_b   6.21986756
_cell_length_c   3.74988146
_cell_angle_alpha   90.00000000
_cell_angle_beta   90.00000000
_cell_angle_gamma   90.00000000
_symmetry_Int_Tables_number   1
_chemical_formula_structural   NaCl
_chemical_formula_sum   'Na4 Cl4'
_cell_volume   145.07073581
_cell_formula_units_Z   4
loop_
 _symmetry_equiv_pos_site_id
 _symmetry_equiv_pos_as_xyz
  1  'x, y, z'
loop_
 _atom_site_type_symbol
 _atom_site_label
 _atom_site_symmetry_multiplicity
 _atom_site_fract_x
 _atom_site_fract_y
 _atom_site_fract_z
 _atom_site_occupancy
  Na  Na0  1  0.12039792  0.28301697  0.70204729  1.0
  Na  Na1  1  0.74325888  0.73971589  0.99644805  1.0
  Na  Na2  1  0.91023931  0.03591161  0.35474555  1.0
  Na  Na3  1  0.58054550  0.50702532  0.83256417  1.0
  Cl  Cl4  1  0.89680820  0.48851917  0.67191145  1.0
  Cl  Cl5  1  0.79632219  0.46925510  0.81305881  1.0
  Cl  Cl6  1  0.33525598  0.63747876  0.62524123  1.0
  Cl  Cl7  1  0.84039014  0.13363693  0.87684312  1.0
