# generated using pymatgen
data_NaCl
_symmetry_space_group_name_H-M   'P 1'
_cell_length_a   7.10240438
_cell_length_b   7.10240438
_cell_length_c   7.37878864
_cell_angle_alpha   90.00000000
_cell_angle_beta   90.00000000
_cell_angle_gamma   90.00000000
_symmetry_Int_Tables_number   1
_chemical_formula_structural   NaCl
_chemical_formula_sum   'Na4 Cl4'
_cell_volume   372.21670605
_cell_formula_units_Z   4
loop_
 _symmetry_equiv_pos_site_id
 _symmetry_equiv_pos_as_xyz
  1  'x, y, z'
loop_
 _atom_site_type_symbol
 _atom_site_label
 _atom_site_symmetry_multiplicity
 _atom_site_fract_x
 _atom_site_fract_y
 _atom_site_fract_z
 _atom_site_occupancy
  Na  Na0  1  0.59348576  0.10108158  0.18140508  1.0
  Na  Na1  1  0.03350241  0.15845105  0.34767260  1.0
  Na  Na2  1  0.67192512  0.62109916  0.86448479  1.0
  Na  Na3  1  0.10393078  0.67933011  0.56375233  1.0
  Cl  Cl4  1  0.00068131  0.09113821  0.07321073  1.0
  Cl  Cl5  1  0.00019846  0.11759752  0.59204270  1.0
  Cl  Cl6  1  0.42239917  0.25202973  0.50245500  1.0
  Cl  Cl7  1  0.08662747  0.64931250  0.41682772  1.0
