# generated using pymatgen
data_NaCl
_symmetry_space_group_name_H-M   'P 1'
_cell_length_a   3.19134549
_cell_length_b   16.98184664
_cell_length_c   7.51246617
_cell_angle_alpha   90.00000000
_cell_angle_beta   133.60254998
_cell_angle_gamma   90.00000000
_symmetry_Int_Tables_number   1
_chemical_formula_structural   NaCl
_chemical_formula_sum   'Na4 Cl4'
_cell_volume   294.82513445
_cell_formula_units_Z   4
loop_
 _symmetry_equiv_pos_site_id
 _symmetry_equiv_pos_as_xyz
  1  'x, y, z'
loop_
 _atom_site_type_symbol
 _atom_site_label
 _atom_site_symmetry_multiplicity
 _atom_site_fract_x
 _atom_site_fract_y
 _atom_site_fract_z
 _atom_site_occupancy
  Na  Na0  1  0.63447052  0.82016265  0.09287158  1.0
  Na  Na1  1  0.11451038  0.77591832  0.16015898  1.0
  Na  Na2  1  0.94353701  0.12238767  0.14100887  1.0
  Na  Na3  1  0.25396273  0.50647120  0.36570436  1.0
  Cl  Cl4  1  0.00000000  0.23639832  0.00000000  1.0
  Cl  Cl5  1  0.50000000  0.40304162  0.00000000  1.0
  Cl  Cl6  1  0.00000000  0.48728083  0.00000000  1.0
  Cl  Cl7  1  0.50000000  0.56144161  0.00000000  1.0
