# generated using pymatgen
data_NaCl
_symmetry_space_group_name_H-M   'P 1'
_cell_length_a   3.34439618
_cell_length_b   11.17660505
_cell_length_c   7.21190147
_cell_angle_alpha   90.00000000
_cell_angle_beta   90.00000000
_cell_angle_gamma   90.00000000
_symmetry_Int_Tables_number   1
_chemical_formula_structural   NaCl
_chemical_formula_sum   'Na4 Cl4'
_cell_volume   269.57363068
_cell_formula_units_Z   4
loop_
 _symmetry_equiv_pos_site_id
 _symmetry_equiv_pos_as_xyz
  1  'x, y, z'
loop_
 _atom_site_type_symbol
 _atom_site_label
 _atom_site_symmetry_multiplicity
 _atom_site_fract_x
 _atom_site_fract_y
 _atom_site_fract_z
 _atom_site_occupancy
  Na  Na0  1  0.00000000  0.50000000  0.17419609  1.0
  Na  Na1  1  0.50000000  0.00000000  0.21044664  1.0
  Na  Na2  1  0.00000000  0.50000000  0.84869073  1.0
  Na  Na3  1  0.50000000  0.00000000  0.75853636  1.0
  Cl  Cl4  1  0.69446939  0.24668663  0.50000000  1.0
  Cl  Cl5  1  0.15691385  0.05186631  0.50000000  1.0
  Cl  Cl6  1  0.98829906  0.14685424  0.50000000  1.0
  Cl  Cl7  1  0.72143124  0.36706663  0.50000000  1.0
