# generated using pymatgen
data_NaCl
_symmetry_space_group_name_H-M   'P 1'
_cell_length_a   4.16893026
_cell_length_b   4.16893026
_cell_length_c   15.45924176
_cell_angle_alpha   90.00000000
_cell_angle_beta   90.00000000
_cell_angle_gamma   90.00000000
_symmetry_Int_Tables_number   1
_chemical_formula_structural   NaCl
_chemical_formula_sum   'Na4 Cl4'
_cell_volume   268.68130507
_cell_formula_units_Z   4
loop_
 _symmetry_equiv_pos_site_id
 _symmetry_equiv_pos_as_xyz
  1  'x, y, z'
loop_
 _atom_site_type_symbol
 _atom_site_label
 _atom_site_symmetry_multiplicity
 _atom_site_fract_x
 _atom_site_fract_y
 _atom_site_fract_z
 _atom_site_occupancy
  Na  Na0  1  0.83500668  0.90276713  0.65458770  1.0
  Na  Na1  1  0.19590316  0.08915371  0.85133657  1.0
  Na  Na2  1  0.50713536  0.25730041  0.22080376  1.0
  Na  Na3  1  0.32000323  0.57295210  0.27024709  1.0
  Cl  Cl4  1  0.42677563  0.04404256  0.05839426  1.0
  Cl  Cl5  1  0.49392020  0.45206659  0.89089763  1.0
  Cl  Cl6  1  0.68879339  0.10045463  0.83147219  1.0
  Cl  Cl7  1  0.54413235  0.89373525  0.93340869  1.0
