# generated using pymatgen
data_NaCl
_symmetry_space_group_name_H-M   'P 1'
_cell_length_a   4.59819790
_cell_length_b   4.59819790
_cell_length_c   4.84132617
_cell_angle_alpha   90.00000000
_cell_angle_beta   90.00000000
_cell_angle_gamma   90.00000000
_symmetry_Int_Tables_number   1
_chemical_formula_structural   NaCl
_chemical_formula_sum   'Na4 Cl4'
_cell_volume   102.36221158
_cell_formula_units_Z   4
loop_
 _symmetry_equiv_pos_site_id
 _symmetry_equiv_pos_as_xyz
  1  'x, y, z'
loop_
 _atom_site_type_symbol
 _atom_site_label
 _atom_site_symmetry_multiplicity
 _atom_site_fract_x
 _atom_site_fract_y
 _atom_site_fract_z
 _atom_site_occupancy
  Na  Na0  1  0.71689084  0.71689084  0.50000000  1.0
  Na  Na1  1  0.06199120  0.06199120  0.50000000  1.0
  Na  Na2  1  0.01639397  0.98360603  0.00000000  1.0
  Na  Na3  1  0.79899662  0.20100338  0.00000000  1.0
  Cl  Cl4  1  0.00000000  0.50000000  0.11927051  1.0
  Cl  Cl5  1  0.00000000  0.50000000  0.58183127  1.0
  Cl  Cl6  1  0.50000000  0.00000000  0.52831109  1.0
  Cl  Cl7  1  0.50000000  0.00000000  0.87882645  1.0
