# generated using pymatgen
data_NaCl
_symmetry_space_group_name_H-M   'P 1'
_cell_length_a   3.39650735
_cell_length_b   15.42347748
_cell_length_c   6.04793331
_cell_angle_alpha   90.00000000
_cell_angle_beta   90.00000000
_cell_angle_gamma   90.00000000
_symmetry_Int_Tables_number   1
_chemical_formula_structural   NaCl
_chemical_formula_sum   'Na4 Cl4'
_cell_volume   316.82675994
_cell_formula_units_Z   4
loop_
 _symmetry_equiv_pos_site_id
 _symmetry_equiv_pos_as_xyz
  1  'x, y, z'
loop_
 _atom_site_type_symbol
 _atom_site_label
 _atom_site_symmetry_multiplicity
 _atom_site_fract_x
 _atom_site_fract_y
 _atom_site_fract_z
 _atom_site_occupancy
  Na  Na0  1  0.70752035  0.83761856  0.73850714  1.0
  Na  Na1  1  0.08466003  0.33131112  0.39198559  1.0
  Na  Na2  1  0.97640362  0.42058300  0.15254126  1.0
  Na  Na3  1  0.23715457  0.50744818  0.19329821  1.0
  Cl  Cl4  1  0.82537021  0.23917920  0.23746873  1.0
  Cl  Cl5  1  0.18208329  0.13905595  0.62924030  1.0
  Cl  Cl6  1  0.99098919  0.70454410  0.41297102  1.0
  Cl  Cl7  1  0.10342615  0.59810082  0.56672971  1.0
