# generated using pymatgen
data_NaCl
_symmetry_space_group_name_H-M   'P 1'
_cell_length_a   6.97148755
_cell_length_b   6.97148755
_cell_length_c   4.78249067
_cell_angle_alpha   90.00000000
_cell_angle_beta   90.00000000
_cell_angle_gamma   90.00000000
_symmetry_Int_Tables_number   1
_chemical_formula_structural   NaCl
_chemical_formula_sum   'Na4 Cl4'
_cell_volume   232.43688344
_cell_formula_units_Z   4
loop_
 _symmetry_equiv_pos_site_id
 _symmetry_equiv_pos_as_xyz
  1  'x, y, z'
loop_
 _atom_site_type_symbol
 _atom_site_label
 _atom_site_symmetry_multiplicity
 _atom_site_fract_x
 _atom_site_fract_y
 _atom_site_fract_z
 _atom_site_occupancy
  Na  Na0  1  0.81130812  0.33697626  0.64882374  1.0
  Na  Na1  1  0.55094964  0.17334756  0.50167610  1.0
  Na  Na2  1  0.58764682  0.58049674  0.48597044  1.0
  Na  Na3  1  0.25893287  0.37960389  0.54467924  1.0
  Cl  Cl4  1  0.41647095  0.00164679  0.30886470  1.0
  Cl  Cl5  1  0.95049937  0.67896060  0.94580596  1.0
  Cl  Cl6  1  0.44147840  0.26372990  0.06765178  1.0
  Cl  Cl7  1  0.51756588  0.39877642  0.73713859  1.0
