# generated using pymatgen
data_NaCl
_symmetry_space_group_name_H-M   'P 1'
_cell_length_a   5.78016147
_cell_length_b   5.78016147
_cell_length_c   5.78016147
_cell_angle_alpha   90.00000000
_cell_angle_beta   90.00000000
_cell_angle_gamma   90.00000000
_symmetry_Int_Tables_number   1
_chemical_formula_structural   NaCl
_chemical_formula_sum   'Na4 Cl4'
_cell_volume   193.11673582
_cell_formula_units_Z   4
loop_
 _symmetry_equiv_pos_site_id
 _symmetry_equiv_pos_as_xyz
  1  'x, y, z'
loop_
 _atom_site_type_symbol
 _atom_site_label
 _atom_site_symmetry_multiplicity
 _atom_site_fract_x
 _atom_site_fract_y
 _atom_site_fract_z
 _atom_site_occupancy
  Na  Na0  1  0.90106610  0.90106610  0.90106610  1.0
  Na  Na1  1  0.56656118  0.06656118  0.43343882  1.0
  Na  Na2  1  0.25205318  0.24794682  0.75205318  1.0
  Na  Na3  1  0.53290859  0.46709141  0.96709141  1.0
  Cl  Cl4  1  0.07782263  0.07782263  0.07782263  1.0
  Cl  Cl5  1  0.03036632  0.53036632  0.96963368  1.0
  Cl  Cl6  1  0.58949863  0.91050137  0.08949863  1.0
  Cl  Cl7  1  0.76592094  0.23407906  0.73407906  1.0
