# generated using pymatgen
data_NaCl
_symmetry_space_group_name_H-M   'P 1'
_cell_length_a   5.45143216
_cell_length_b   5.45143216
_cell_length_c   5.45143216
_cell_angle_alpha   90.00000000
_cell_angle_beta   90.00000000
_cell_angle_gamma   90.00000000
_symmetry_Int_Tables_number   1
_chemical_formula_structural   NaCl
_chemical_formula_sum   'Na4 Cl4'
_cell_volume   162.00627474
_cell_formula_units_Z   4
loop_
 _symmetry_equiv_pos_site_id
 _symmetry_equiv_pos_as_xyz
  1  'x, y, z'
loop_
 _atom_site_type_symbol
 _atom_site_label
 _atom_site_symmetry_multiplicity
 _atom_site_fract_x
 _atom_site_fract_y
 _atom_site_fract_z
 _atom_site_occupancy
  Na  Na0  1  0.51124148  0.51124148  0.51124148  1.0
  Na  Na1  1  0.95965937  0.45965937  0.04034063  1.0
  Na  Na2  1  0.37252865  0.12747135  0.87252865  1.0
  Na  Na3  1  0.87412836  0.12587164  0.62587164  1.0
  Cl  Cl4  1  0.36486387  0.36486387  0.36486387  1.0
  Cl  Cl5  1  0.61428894  0.11428894  0.38571106  1.0
  Cl  Cl6  1  0.83164330  0.66835670  0.33164330  1.0
  Cl  Cl7  1  0.68283920  0.31716080  0.81716080  1.0
