# generated using pymatgen
data_NaCl
_symmetry_space_group_name_H-M   'P 1'
_cell_length_a   6.95227314
_cell_length_b   6.95227314
_cell_length_c   7.41277264
_cell_angle_alpha   90.00000000
_cell_angle_beta   90.00000000
_cell_angle_gamma   90.00000000
_symmetry_Int_Tables_number   1
_chemical_formula_structural   NaCl
_chemical_formula_sum   'Na4 Cl4'
_cell_volume   358.28970750
_cell_formula_units_Z   4
loop_
 _symmetry_equiv_pos_site_id
 _symmetry_equiv_pos_as_xyz
  1  'x, y, z'
loop_
 _atom_site_type_symbol
 _atom_site_label
 _atom_site_symmetry_multiplicity
 _atom_site_fract_x
 _atom_site_fract_y
 _atom_site_fract_z
 _atom_site_occupancy
  Na  Na0  1  0.64970901  0.18037302  0.14263577  1.0
  Na  Na1  1  0.02036982  0.16926191  0.45075825  1.0
  Na  Na2  1  0.48834917  0.75684597  0.09708071  1.0
  Na  Na3  1  0.47599629  0.52394440  0.23610961  1.0
  Cl  Cl4  1  0.87523753  0.49166631  0.00050304  1.0
  Cl  Cl5  1  0.16414640  0.11837967  0.55286212  1.0
  Cl  Cl6  1  0.49954830  0.38758255  0.41061617  1.0
  Cl  Cl7  1  0.11750139  0.71220766  0.91511062  1.0
