# generated using pymatgen
data_NaCl
_symmetry_space_group_name_H-M   'P 1'
_cell_length_a   4.40175273
_cell_length_b   16.02772484
_cell_length_c   6.43141972
_cell_angle_alpha   90.00000000
_cell_angle_beta   136.56830006
_cell_angle_gamma   90.00000000
_symmetry_Int_Tables_number   1
_chemical_formula_structural   NaCl
_chemical_formula_sum   'Na4 Cl4'
_cell_volume   311.93950402
_cell_formula_units_Z   4
loop_
 _symmetry_equiv_pos_site_id
 _symmetry_equiv_pos_as_xyz
  1  'x, y, z'
loop_
 _atom_site_type_symbol
 _atom_site_label
 _atom_site_symmetry_multiplicity
 _atom_site_fract_x
 _atom_site_fract_y
 _atom_site_fract_z
 _atom_site_occupancy
  Na  Na0  1  0.00000000  0.26417056  0.25000000  1.0
  Na  Na1  1  0.00000000  0.30193292  0.75000000  1.0
  Na  Na2  1  0.50000000  0.66430600  0.25000000  1.0
  Na  Na3  1  0.50000000  0.45555998  0.75000000  1.0
  Cl  Cl4  1  0.00000000  0.17843120  0.25000000  1.0
  Cl  Cl5  1  0.00000000  0.17102524  0.75000000  1.0
  Cl  Cl6  1  0.00000000  0.52294064  0.25000000  1.0
  Cl  Cl7  1  0.00000000  0.96540285  0.75000000  1.0
