# generated using pymatgen
data_NaCl
_symmetry_space_group_name_H-M   'P 1'
_cell_length_a   5.18906219
_cell_length_b   5.18906219
_cell_length_c   11.88799192
_cell_angle_alpha   90.00000000
_cell_angle_beta   90.00000000
_cell_angle_gamma   90.00000000
_symmetry_Int_Tables_number   1
_chemical_formula_structural   NaCl
_chemical_formula_sum   'Na4 Cl4'
_cell_volume   320.10042634
_cell_formula_units_Z   4
loop_
 _symmetry_equiv_pos_site_id
 _symmetry_equiv_pos_as_xyz
  1  'x, y, z'
loop_
 _atom_site_type_symbol
 _atom_site_label
 _atom_site_symmetry_multiplicity
 _atom_site_fract_x
 _atom_site_fract_y
 _atom_site_fract_z
 _atom_site_occupancy
  Na  Na0  1  0.70043882  0.20043882  0.07068541  1.0
  Na  Na1  1  0.04938081  0.54938081  0.77729946  1.0
  Na  Na2  1  0.94320276  0.55679724  0.60803493  1.0
  Na  Na3  1  0.63933880  0.86066120  0.96174130  1.0
  Cl  Cl4  1  0.00000000  0.00000000  0.23121337  1.0
  Cl  Cl5  1  0.50000000  0.50000000  0.19544748  1.0
  Cl  Cl6  1  0.50000000  0.00000000  0.41089208  1.0
  Cl  Cl7  1  0.00000000  0.50000000  0.17247020  1.0
