# generated using pymatgen
data_NaCl
_symmetry_space_group_name_H-M   'P 1'
_cell_length_a   4.86840159
_cell_length_b   4.86840159
_cell_length_c   14.07678163
_cell_angle_alpha   90.00000000
_cell_angle_beta   90.00000000
_cell_angle_gamma   90.00000000
_symmetry_Int_Tables_number   1
_chemical_formula_structural   NaCl
_chemical_formula_sum   'Na4 Cl4'
_cell_volume   333.63850364
_cell_formula_units_Z   4
loop_
 _symmetry_equiv_pos_site_id
 _symmetry_equiv_pos_as_xyz
  1  'x, y, z'
loop_
 _atom_site_type_symbol
 _atom_site_label
 _atom_site_symmetry_multiplicity
 _atom_site_fract_x
 _atom_site_fract_y
 _atom_site_fract_z
 _atom_site_occupancy
  Na  Na0  1  0.64379056  0.97973078  0.56719056  1.0
  Na  Na1  1  0.07813772  0.43638863  0.66592073  1.0
  Na  Na2  1  0.53278027  0.48745454  0.01256126  1.0
  Na  Na3  1  0.28148003  0.67893061  0.31063852  1.0
  Cl  Cl4  1  0.00000000  0.50000000  0.35835115  1.0
  Cl  Cl5  1  0.50000000  0.00000000  0.74746778  1.0
  Cl  Cl6  1  0.50000000  0.50000000  0.34209054  1.0
  Cl  Cl7  1  0.50000000  0.50000000  0.53731428  1.0
