# generated using pymatgen
data_NaCl
_symmetry_space_group_name_H-M   'P 1'
_cell_length_a   3.77421920
_cell_length_b   3.77421920
_cell_length_c   14.97532542
_cell_angle_alpha   90.00000000
_cell_angle_beta   90.00000000
_cell_angle_gamma   90.00000000
_symmetry_Int_Tables_number   1
_chemical_formula_structural   NaCl
_chemical_formula_sum   'Na4 Cl4'
_cell_volume   213.31947580
_cell_formula_units_Z   4
loop_
 _symmetry_equiv_pos_site_id
 _symmetry_equiv_pos_as_xyz
  1  'x, y, z'
loop_
 _atom_site_type_symbol
 _atom_site_label
 _atom_site_symmetry_multiplicity
 _atom_site_fract_x
 _atom_site_fract_y
 _atom_site_fract_z
 _atom_site_occupancy
  Na  Na0  1  0.61209595  0.13847853  0.17755813  1.0
  Na  Na1  1  0.71393020  0.07256469  0.38451833  1.0
  Na  Na2  1  0.78621131  0.61464293  0.82999154  1.0
  Na  Na3  1  0.04821609  0.55202034  0.53461329  1.0
  Cl  Cl4  1  0.99651048  0.00240686  0.54131874  1.0
  Cl  Cl5  1  0.20026691  0.17204887  0.48290761  1.0
  Cl  Cl6  1  0.53826381  0.30136322  0.45097661  1.0
  Cl  Cl7  1  0.12758354  0.64055118  0.44848944  1.0
