# generated using pymatgen
data_NaCl
_symmetry_space_group_name_H-M   'P 1'
_cell_length_a   6.04353632
_cell_length_b   6.04353632
_cell_length_c   4.25407502
_cell_angle_alpha   90.00000000
_cell_angle_beta   90.00000000
_cell_angle_gamma   90.00000000
_symmetry_Int_Tables_number   1
_chemical_formula_structural   NaCl
_chemical_formula_sum   'Na4 Cl4'
_cell_volume   155.37724520
_cell_formula_units_Z   4
loop_
 _symmetry_equiv_pos_site_id
 _symmetry_equiv_pos_as_xyz
  1  'x, y, z'
loop_
 _atom_site_type_symbol
 _atom_site_label
 _atom_site_symmetry_multiplicity
 _atom_site_fract_x
 _atom_site_fract_y
 _atom_site_fract_z
 _atom_site_occupancy
  Na  Na0  1  0.00000000  0.00000000  0.22797063  1.0
  Na  Na1  1  0.50000000  0.50000000  0.81615786  1.0
  Na  Na2  1  0.50000000  0.00000000  0.30063641  1.0
  Na  Na3  1  0.00000000  0.50000000  0.50531398  1.0
  Cl  Cl4  1  0.73220778  0.23220778  0.19231627  1.0
  Cl  Cl5  1  0.15556456  0.65556456  0.25589955  1.0
  Cl  Cl6  1  0.07158670  0.42841330  0.90165420  1.0
  Cl  Cl7  1  0.86832583  0.63167417  0.01880845  1.0
