# generated using pymatgen
data_NaCl
_symmetry_space_group_name_H-M   'P 1'
_cell_length_a   4.41782597
_cell_length_b   13.87747673
_cell_length_c   2.31514473
_cell_angle_alpha   90.00000000
_cell_angle_beta   90.00000000
_cell_angle_gamma   90.00000000
_symmetry_Int_Tables_number   1
_chemical_formula_structural   NaCl
_chemical_formula_sum   'Na4 Cl4'
_cell_volume   141.93753462
_cell_formula_units_Z   4
loop_
 _symmetry_equiv_pos_site_id
 _symmetry_equiv_pos_as_xyz
  1  'x, y, z'
loop_
 _atom_site_type_symbol
 _atom_site_label
 _atom_site_symmetry_multiplicity
 _atom_site_fract_x
 _atom_site_fract_y
 _atom_site_fract_z
 _atom_site_occupancy
  Na  Na0  1  0.64747812  0.15113564  0.14558414  1.0
  Na  Na1  1  0.00123249  0.19154413  0.67055828  1.0
  Na  Na2  1  0.78322595  0.79562234  0.60546166  1.0
  Na  Na3  1  0.68135958  0.50288546  0.08926562  1.0
  Cl  Cl4  1  0.00000000  0.00000000  0.06860143  1.0
  Cl  Cl5  1  0.00000000  0.50000000  0.58509985  1.0
  Cl  Cl6  1  0.50000000  0.00000000  0.95477641  1.0
  Cl  Cl7  1  0.50000000  0.50000000  0.65089861  1.0
