# generated using pymatgen
data_NaCl
_symmetry_space_group_name_H-M   'P 1'
_cell_length_a   4.95332840
_cell_length_b   19.33802213
_cell_length_c   3.49154810
_cell_angle_alpha   90.00000000
_cell_angle_beta   90.00000000
_cell_angle_gamma   90.00000000
_symmetry_Int_Tables_number   1
_chemical_formula_structural   NaCl
_chemical_formula_sum   'Na4 Cl4'
_cell_volume   334.44692276
_cell_formula_units_Z   4
loop_
 _symmetry_equiv_pos_site_id
 _symmetry_equiv_pos_as_xyz
  1  'x, y, z'
loop_
 _atom_site_type_symbol
 _atom_site_label
 _atom_site_symmetry_multiplicity
 _atom_site_fract_x
 _atom_site_fract_y
 _atom_site_fract_z
 _atom_site_occupancy
  Na  Na0  1  0.64883487  0.00000000  0.27654473  1.0
  Na  Na1  1  0.03275541  0.00000000  0.90586313  1.0
  Na  Na2  1  0.98651290  0.50000000  0.73049824  1.0
  Na  Na3  1  0.07816508  0.50000000  0.29146206  1.0
  Cl  Cl4  1  0.25000000  0.25000000  0.14548252  1.0
  Cl  Cl5  1  0.25000000  0.75000000  0.51179264  1.0
  Cl  Cl6  1  0.75000000  0.75000000  0.99881928  1.0
  Cl  Cl7  1  0.75000000  0.25000000  0.09669286  1.0
