# generated using pymatgen
data_NaCl
_symmetry_space_group_name_H-M   'P 1'
_cell_length_a   6.03919182
_cell_length_b   19.30675083
_cell_length_c   6.00575385
_cell_angle_alpha   90.00000000
_cell_angle_beta   153.93603090
_cell_angle_gamma   90.00000000
_symmetry_Int_Tables_number   1
_chemical_formula_structural   NaCl
_chemical_formula_sum   'Na4 Cl4'
_cell_volume   307.67360860
_cell_formula_units_Z   4
loop_
 _symmetry_equiv_pos_site_id
 _symmetry_equiv_pos_as_xyz
  1  'x, y, z'
loop_
 _atom_site_type_symbol
 _atom_site_label
 _atom_site_symmetry_multiplicity
 _atom_site_fract_x
 _atom_site_fract_y
 _atom_site_fract_z
 _atom_site_occupancy
  Na  Na0  1  0.66534250  0.12991003  0.27699565  1.0
  Na  Na1  1  0.06565444  0.43490328  0.85491833  1.0
  Na  Na2  1  0.49654145  0.74483806  0.94052030  1.0
  Na  Na3  1  0.35305137  0.40349625  0.67782002  1.0
  Cl  Cl4  1  0.00000000  0.00000000  0.00000000  1.0
  Cl  Cl5  1  0.00000000  0.50000000  0.50000000  1.0
  Cl  Cl6  1  0.50000000  0.00000000  0.50000000  1.0
  Cl  Cl7  1  0.50000000  0.50000000  0.00000000  1.0
