# generated using pymatgen
data_NaCl
_symmetry_space_group_name_H-M   'P 1'
_cell_length_a   4.66043716
_cell_length_b   4.66043716
_cell_length_c   12.82333964
_cell_angle_alpha   90.00000000
_cell_angle_beta   90.00000000
_cell_angle_gamma   120.00000000
_symmetry_Int_Tables_number   1
_chemical_formula_structural   NaCl
_chemical_formula_sum   'Na4 Cl4'
_cell_volume   241.20432442
_cell_formula_units_Z   4
loop_
 _symmetry_equiv_pos_site_id
 _symmetry_equiv_pos_as_xyz
  1  'x, y, z'
loop_
 _atom_site_type_symbol
 _atom_site_label
 _atom_site_symmetry_multiplicity
 _atom_site_fract_x
 _atom_site_fract_y
 _atom_site_fract_z
 _atom_site_occupancy
  Na  Na0  1  0.33333333  0.66666667  0.33609893  1.0
  Na  Na1  1  0.33333333  0.66666667  0.73755177  1.0
  Na  Na2  1  0.66666667  0.33333333  0.77944034  1.0
  Na  Na3  1  0.66666667  0.33333333  0.36092646  1.0
  Cl  Cl4  1  0.00000000  0.00000000  0.16709077  1.0
  Cl  Cl5  1  0.00000000  0.00000000  0.31896450  1.0
  Cl  Cl6  1  0.00000000  0.00000000  0.91109395  1.0
  Cl  Cl7  1  0.00000000  0.00000000  0.70179770  1.0
