# generated using pymatgen
data_NaCl
_symmetry_space_group_name_H-M   'P 1'
_cell_length_a   4.95345806
_cell_length_b   4.95345806
_cell_length_c   14.94357709
_cell_angle_alpha   90.00000000
_cell_angle_beta   90.00000000
_cell_angle_gamma   90.00000000
_symmetry_Int_Tables_number   1
_chemical_formula_structural   NaCl
_chemical_formula_sum   'Na4 Cl4'
_cell_volume   366.66676663
_cell_formula_units_Z   4
loop_
 _symmetry_equiv_pos_site_id
 _symmetry_equiv_pos_as_xyz
  1  'x, y, z'
loop_
 _atom_site_type_symbol
 _atom_site_label
 _atom_site_symmetry_multiplicity
 _atom_site_fract_x
 _atom_site_fract_y
 _atom_site_fract_z
 _atom_site_occupancy
  Na  Na0  1  0.90459282  0.19179991  0.12661628  1.0
  Na  Na1  1  0.16741567  0.17446720  0.25187421  1.0
  Na  Na2  1  0.42873776  0.50737279  0.98215370  1.0
  Na  Na3  1  0.24283845  0.89704368  0.03045829  1.0
  Cl  Cl4  1  0.78086260  0.35780864  0.22225365  1.0
  Cl  Cl5  1  0.01683974  0.55004720  0.78206389  1.0
  Cl  Cl6  1  0.39436961  0.42628987  0.63503975  1.0
  Cl  Cl7  1  0.05380931  0.70472064  0.35527147  1.0
