# generated using pymatgen
data_NaCl
_symmetry_space_group_name_H-M   'P 1'
_cell_length_a   6.88000115
_cell_length_b   2.29530230
_cell_length_c   16.50413884
_cell_angle_alpha   90.00000000
_cell_angle_beta   119.22012838
_cell_angle_gamma   90.00000000
_symmetry_Int_Tables_number   1
_chemical_formula_structural   NaCl
_chemical_formula_sum   'Na4 Cl4'
_cell_volume   227.46335717
_cell_formula_units_Z   4
loop_
 _symmetry_equiv_pos_site_id
 _symmetry_equiv_pos_as_xyz
  1  'x, y, z'
loop_
 _atom_site_type_symbol
 _atom_site_label
 _atom_site_symmetry_multiplicity
 _atom_site_fract_x
 _atom_site_fract_y
 _atom_site_fract_z
 _atom_site_occupancy
  Na  Na0  1  0.58471589  0.48125289  0.41660249  1.0
  Na  Na1  1  0.81247315  0.24049001  0.20865144  1.0
  Na  Na2  1  0.09310943  0.95769431  0.47437822  1.0
  Na  Na3  1  0.79542053  0.13616790  0.31053497  1.0
  Cl  Cl4  1  0.15709724  0.32066051  0.31633906  1.0
  Cl  Cl5  1  0.71561324  0.31343684  0.70180034  1.0
  Cl  Cl6  1  0.74157931  0.08445079  0.04794616  1.0
  Cl  Cl7  1  0.65501374  0.17365750  0.51476596  1.0
