# generated using pymatgen
data_NaCl
_symmetry_space_group_name_H-M   'P 1'
_cell_length_a   4.79106136
_cell_length_b   14.01930018
_cell_length_c   10.99603304
_cell_angle_alpha   90.00000000
_cell_angle_beta   148.46208791
_cell_angle_gamma   90.00000000
_symmetry_Int_Tables_number   1
_chemical_formula_structural   NaCl
_chemical_formula_sum   'Na4 Cl4'
_cell_volume   386.32054123
_cell_formula_units_Z   4
loop_
 _symmetry_equiv_pos_site_id
 _symmetry_equiv_pos_as_xyz
  1  'x, y, z'
loop_
 _atom_site_type_symbol
 _atom_site_label
 _atom_site_symmetry_multiplicity
 _atom_site_fract_x
 _atom_site_fract_y
 _atom_site_fract_z
 _atom_site_occupancy
  Na  Na0  1  0.85653856  0.15102394  0.07001616  1.0
  Na  Na1  1  0.03465193  0.36662966  0.12467507  1.0
  Na  Na2  1  0.66528614  0.69513867  0.20684502  1.0
  Na  Na3  1  0.85030252  0.93567969  0.45702947  1.0
  Cl  Cl4  1  0.10033312  0.39352135  0.73433959  1.0
  Cl  Cl5  1  0.49613799  0.44331593  0.74706818  1.0
  Cl  Cl6  1  0.24289081  0.65084982  0.89893747  1.0
  Cl  Cl7  1  0.72144575  0.55752577  0.90826386  1.0
