# generated using pymatgen
data_NaCl
_symmetry_space_group_name_H-M   'P 1'
_cell_length_a   4.71346656
_cell_length_b   11.91836359
_cell_length_c   6.08496631
_cell_angle_alpha   90.00000000
_cell_angle_beta   90.00000000
_cell_angle_gamma   90.00000000
_symmetry_Int_Tables_number   1
_chemical_formula_structural   NaCl
_chemical_formula_sum   'Na4 Cl4'
_cell_volume   341.83398549
_cell_formula_units_Z   4
loop_
 _symmetry_equiv_pos_site_id
 _symmetry_equiv_pos_as_xyz
  1  'x, y, z'
loop_
 _atom_site_type_symbol
 _atom_site_label
 _atom_site_symmetry_multiplicity
 _atom_site_fract_x
 _atom_site_fract_y
 _atom_site_fract_z
 _atom_site_occupancy
  Na  Na0  1  0.67742001  0.28289649  0.08657117  1.0
  Na  Na1  1  0.50025788  0.15295568  0.28120895  1.0
  Na  Na2  1  0.83015454  0.42020286  0.29238848  1.0
  Na  Na3  1  0.94409568  0.52144247  0.55343206  1.0
  Cl  Cl4  1  0.00000000  0.25903088  0.15117623  1.0
  Cl  Cl5  1  0.50000000  0.13434432  0.62514535  1.0
  Cl  Cl6  1  0.00000000  0.70925227  0.86977744  1.0
  Cl  Cl7  1  0.50000000  0.36091917  0.55679195  1.0
