# generated using pymatgen
data_NaCl
_symmetry_space_group_name_H-M   'P 1'
_cell_length_a   5.33362595
_cell_length_b   5.33362595
_cell_length_c   14.17172920
_cell_angle_alpha   90.00000000
_cell_angle_beta   90.00000000
_cell_angle_gamma   90.00000000
_symmetry_Int_Tables_number   1
_chemical_formula_structural   NaCl
_chemical_formula_sum   'Na4 Cl4'
_cell_volume   403.15119856
_cell_formula_units_Z   4
loop_
 _symmetry_equiv_pos_site_id
 _symmetry_equiv_pos_as_xyz
  1  'x, y, z'
loop_
 _atom_site_type_symbol
 _atom_site_label
 _atom_site_symmetry_multiplicity
 _atom_site_fract_x
 _atom_site_fract_y
 _atom_site_fract_z
 _atom_site_occupancy
  Na  Na0  1  0.56758573  0.98255766  0.55796666  1.0
  Na  Na1  1  0.53216198  0.49723492  0.09212343  1.0
  Na  Na2  1  0.61505114  0.30918194  0.68771537  1.0
  Na  Na3  1  0.40380951  0.75493224  0.59686032  1.0
  Cl  Cl4  1  0.34077404  0.28870233  0.39212648  1.0
  Cl  Cl5  1  0.35582220  0.19755018  0.90591061  1.0
  Cl  Cl6  1  0.50933638  0.21118934  0.33197813  1.0
  Cl  Cl7  1  0.29227503  0.13679247  0.81132260  1.0
