# generated using pymatgen
data_NaCl
_symmetry_space_group_name_H-M   'P 1'
_cell_length_a   5.97756384
_cell_length_b   5.97756384
_cell_length_c   7.31647235
_cell_angle_alpha   90.00000000
_cell_angle_beta   90.00000000
_cell_angle_gamma   90.00000000
_symmetry_Int_Tables_number   1
_chemical_formula_structural   NaCl
_chemical_formula_sum   'Na4 Cl4'
_cell_volume   261.42684504
_cell_formula_units_Z   4
loop_
 _symmetry_equiv_pos_site_id
 _symmetry_equiv_pos_as_xyz
  1  'x, y, z'
loop_
 _atom_site_type_symbol
 _atom_site_label
 _atom_site_symmetry_multiplicity
 _atom_site_fract_x
 _atom_site_fract_y
 _atom_site_fract_z
 _atom_site_occupancy
  Na  Na0  1  0.78396161  0.88181328  0.15944452  1.0
  Na  Na1  1  0.11541639  0.21360280  0.32568440  1.0
  Na  Na2  1  0.67768639  0.46445119  0.33875178  1.0
  Na  Na3  1  0.11819210  0.80432098  0.41320567  1.0
  Cl  Cl4  1  0.85518896  0.18456937  0.22499274  1.0
  Cl  Cl5  1  0.12553975  0.10270918  0.54317170  1.0
  Cl  Cl6  1  0.24624702  0.44128901  0.93286956  1.0
  Cl  Cl7  1  0.00071366  0.74504818  0.20746025  1.0
