# generated using pymatgen
data_NaCl
_symmetry_space_group_name_H-M   'P 1'
_cell_length_a   6.83931662
_cell_length_b   14.48345481
_cell_length_c   5.71919874
_cell_angle_alpha   90.00000000
_cell_angle_beta   134.73635823
_cell_angle_gamma   90.00000000
_symmetry_Int_Tables_number   1
_chemical_formula_structural   NaCl
_chemical_formula_sum   'Na4 Cl4'
_cell_volume   402.43363491
_cell_formula_units_Z   4
loop_
 _symmetry_equiv_pos_site_id
 _symmetry_equiv_pos_as_xyz
  1  'x, y, z'
loop_
 _atom_site_type_symbol
 _atom_site_label
 _atom_site_symmetry_multiplicity
 _atom_site_fract_x
 _atom_site_fract_y
 _atom_site_fract_z
 _atom_site_occupancy
  Na  Na0  1  0.68612456  0.89341069  0.07473080  1.0
  Na  Na1  1  0.03542272  0.34826410  0.32843956  1.0
  Na  Na2  1  0.44079570  0.75452901  0.17179541  1.0
  Na  Na3  1  0.70916368  0.52837526  0.51873262  1.0
  Cl  Cl4  1  0.84227583  0.09453749  0.03248376  1.0
  Cl  Cl5  1  0.14021045  0.26982342  0.93860753  1.0
  Cl  Cl6  1  0.42014566  0.59108931  0.97868547  1.0
  Cl  Cl7  1  0.91616166  0.62747741  0.87455244  1.0
