# generated using pymatgen
data_NaCl
_symmetry_space_group_name_H-M   'P 1'
_cell_length_a   4.51199162
_cell_length_b   4.51199162
_cell_length_c   8.63304901
_cell_angle_alpha   90.00000000
_cell_angle_beta   90.00000000
_cell_angle_gamma   90.00000000
_symmetry_Int_Tables_number   1
_chemical_formula_structural   NaCl
_chemical_formula_sum   'Na4 Cl4'
_cell_volume   175.75220206
_cell_formula_units_Z   4
loop_
 _symmetry_equiv_pos_site_id
 _symmetry_equiv_pos_as_xyz
  1  'x, y, z'
loop_
 _atom_site_type_symbol
 _atom_site_label
 _atom_site_symmetry_multiplicity
 _atom_site_fract_x
 _atom_site_fract_y
 _atom_site_fract_z
 _atom_site_occupancy
  Na  Na0  1  0.62226637  0.62226637  0.62500000  1.0
  Na  Na1  1  0.26290611  0.26290611  0.12500000  1.0
  Na  Na2  1  0.32870147  0.67129853  0.37500000  1.0
  Na  Na3  1  0.29368761  0.70631239  0.87500000  1.0
  Cl  Cl4  1  0.37610774  0.37610774  0.62500000  1.0
  Cl  Cl5  1  0.05658285  0.05658285  0.12500000  1.0
  Cl  Cl6  1  0.79305971  0.20694029  0.37500000  1.0
  Cl  Cl7  1  0.02205854  0.97794146  0.87500000  1.0
