# generated using pymatgen
data_NaCl
_symmetry_space_group_name_H-M   'P 1'
_cell_length_a   5.17637243
_cell_length_b   5.17637243
_cell_length_c   13.91933102
_cell_angle_alpha   90.00000000
_cell_angle_beta   90.00000000
_cell_angle_gamma   90.00000000
_symmetry_Int_Tables_number   1
_chemical_formula_structural   NaCl
_chemical_formula_sum   'Na4 Cl4'
_cell_volume   372.96612975
_cell_formula_units_Z   4
loop_
 _symmetry_equiv_pos_site_id
 _symmetry_equiv_pos_as_xyz
  1  'x, y, z'
loop_
 _atom_site_type_symbol
 _atom_site_label
 _atom_site_symmetry_multiplicity
 _atom_site_fract_x
 _atom_site_fract_y
 _atom_site_fract_z
 _atom_site_occupancy
  Na  Na0  1  0.53531261  0.53531261  0.00000000  1.0
  Na  Na1  1  0.14068392  0.14068392  0.50000000  1.0
  Na  Na2  1  0.07551644  0.92448356  0.25000000  1.0
  Na  Na3  1  0.87559454  0.12440546  0.75000000  1.0
  Cl  Cl4  1  0.28544290  0.28544290  0.00000000  1.0
  Cl  Cl5  1  0.47127773  0.47127773  0.50000000  1.0
  Cl  Cl6  1  0.45941572  0.54058428  0.25000000  1.0
  Cl  Cl7  1  0.60839036  0.39160964  0.75000000  1.0
