# generated using pymatgen
data_NaCl
_symmetry_space_group_name_H-M   'P 1'
_cell_length_a   6.55894059
_cell_length_b   6.55894059
_cell_length_c   5.72414675
_cell_angle_alpha   90.00000000
_cell_angle_beta   90.00000000
_cell_angle_gamma   90.00000000
_symmetry_Int_Tables_number   1
_chemical_formula_structural   NaCl
_chemical_formula_sum   'Na4 Cl4'
_cell_volume   246.25108546
_cell_formula_units_Z   4
loop_
 _symmetry_equiv_pos_site_id
 _symmetry_equiv_pos_as_xyz
  1  'x, y, z'
loop_
 _atom_site_type_symbol
 _atom_site_label
 _atom_site_symmetry_multiplicity
 _atom_site_fract_x
 _atom_site_fract_y
 _atom_site_fract_z
 _atom_site_occupancy
  Na  Na0  1  0.75723324  0.88782754  0.00140563  1.0
  Na  Na1  1  0.11281660  0.26572368  0.15828145  1.0
  Na  Na2  1  0.50132953  0.41808350  0.78254878  1.0
  Na  Na3  1  0.51122592  0.79330256  0.74183985  1.0
  Cl  Cl4  1  0.76738491  0.24401261  0.27327427  1.0
  Cl  Cl5  1  0.14698577  0.05622995  0.56049241  1.0
  Cl  Cl6  1  0.32259459  0.46267826  0.42782397  1.0
  Cl  Cl7  1  0.03353887  0.42444957  0.33421123  1.0
