# generated using pymatgen
data_NaCl
_symmetry_space_group_name_H-M   'P 1'
_cell_length_a   6.81680692
_cell_length_b   21.40657597
_cell_length_c   5.16479135
_cell_angle_alpha   90.00000000
_cell_angle_beta   32.89849767
_cell_angle_gamma   90.00000000
_symmetry_Int_Tables_number   1
_chemical_formula_structural   NaCl
_chemical_formula_sum   'Na4 Cl4'
_cell_volume   409.35746202
_cell_formula_units_Z   4
loop_
 _symmetry_equiv_pos_site_id
 _symmetry_equiv_pos_as_xyz
  1  'x, y, z'
loop_
 _atom_site_type_symbol
 _atom_site_label
 _atom_site_symmetry_multiplicity
 _atom_site_fract_x
 _atom_site_fract_y
 _atom_site_fract_z
 _atom_site_occupancy
  Na  Na0  1  0.91082463  0.63874813  0.50457516  1.0
  Na  Na1  1  0.11250667  0.44923464  0.83107427  1.0
  Na  Na2  1  0.51351361  0.49314795  0.65021999  1.0
  Na  Na3  1  0.60419753  0.85790666  0.94434156  1.0
  Cl  Cl4  1  0.42948796  0.45297254  0.50544612  1.0
  Cl  Cl5  1  0.69065628  0.94594223  0.84086431  1.0
  Cl  Cl6  1  0.38942545  0.18324947  0.21824070  1.0
  Cl  Cl7  1  0.40949674  0.82899679  0.44896810  1.0
