# generated using pymatgen
data_NaCl
_symmetry_space_group_name_H-M   'P 1'
_cell_length_a   4.59165178
_cell_length_b   4.59165178
_cell_length_c   7.66579190
_cell_angle_alpha   90.00000000
_cell_angle_beta   90.00000000
_cell_angle_gamma   90.00000000
_symmetry_Int_Tables_number   1
_chemical_formula_structural   NaCl
_chemical_formula_sum   'Na4 Cl4'
_cell_volume   161.61993026
_cell_formula_units_Z   4
loop_
 _symmetry_equiv_pos_site_id
 _symmetry_equiv_pos_as_xyz
  1  'x, y, z'
loop_
 _atom_site_type_symbol
 _atom_site_label
 _atom_site_symmetry_multiplicity
 _atom_site_fract_x
 _atom_site_fract_y
 _atom_site_fract_z
 _atom_site_occupancy
  Na  Na0  1  0.72229698  0.72229698  0.62500000  1.0
  Na  Na1  1  0.00123557  0.00123557  0.12500000  1.0
  Na  Na2  1  0.41425885  0.58574115  0.37500000  1.0
  Na  Na3  1  0.39640932  0.60359068  0.87500000  1.0
  Cl  Cl4  1  0.50000000  0.02615166  0.00000000  1.0
  Cl  Cl5  1  0.50000000  0.17576504  0.50000000  1.0
  Cl  Cl6  1  0.50390291  0.50000000  0.75000000  1.0
  Cl  Cl7  1  0.02641138  0.50000000  0.25000000  1.0
