# generated using pymatgen
data_NaCl
_symmetry_space_group_name_H-M   'P 1'
_cell_length_a   7.39224717
_cell_length_b   14.24779921
_cell_length_c   4.64937211
_cell_angle_alpha   90.00000000
_cell_angle_beta   136.82162250
_cell_angle_gamma   90.00000000
_symmetry_Int_Tables_number   1
_chemical_formula_structural   NaCl
_chemical_formula_sum   'Na4 Cl4'
_cell_volume   335.07907927
_cell_formula_units_Z   4
loop_
 _symmetry_equiv_pos_site_id
 _symmetry_equiv_pos_as_xyz
  1  'x, y, z'
loop_
 _atom_site_type_symbol
 _atom_site_label
 _atom_site_symmetry_multiplicity
 _atom_site_fract_x
 _atom_site_fract_y
 _atom_site_fract_z
 _atom_site_occupancy
  Na  Na0  1  0.89331409  0.15884005  0.01795298  1.0
  Na  Na1  1  0.07598876  0.39097742  0.13876903  1.0
  Na  Na2  1  0.46165872  0.22625097  0.31529430  1.0
  Na  Na3  1  0.99988652  0.62203060  0.33415936  1.0
  Cl  Cl4  1  0.72301313  0.23522249  0.06166763  1.0
  Cl  Cl5  1  0.13112096  0.48142279  0.86154793  1.0
  Cl  Cl6  1  0.49554602  0.73106857  0.44288426  1.0
  Cl  Cl7  1  0.67383303  0.51777440  0.50464463  1.0
