# generated using pymatgen
data_NaCl
_symmetry_space_group_name_H-M   'P 1'
_cell_length_a   5.15490496
_cell_length_b   5.15490496
_cell_length_c   15.68769194
_cell_angle_alpha   90.00000000
_cell_angle_beta   90.00000000
_cell_angle_gamma   120.00000000
_symmetry_Int_Tables_number   1
_chemical_formula_structural   NaCl
_chemical_formula_sum   'Na4 Cl4'
_cell_volume   361.01979025
_cell_formula_units_Z   4
loop_
 _symmetry_equiv_pos_site_id
 _symmetry_equiv_pos_as_xyz
  1  'x, y, z'
loop_
 _atom_site_type_symbol
 _atom_site_label
 _atom_site_symmetry_multiplicity
 _atom_site_fract_x
 _atom_site_fract_y
 _atom_site_fract_z
 _atom_site_occupancy
  Na  Na0  1  0.33333333  0.66666667  0.10844541  1.0
  Na  Na1  1  0.66666667  0.33333333  0.92686636  1.0
  Na  Na2  1  0.33333333  0.66666667  0.19877853  1.0
  Na  Na3  1  0.66666667  0.33333333  0.60792388  1.0
  Cl  Cl4  1  0.00000000  0.00000000  0.49669879  1.0
  Cl  Cl5  1  0.50000000  0.00000000  0.55805474  1.0
  Cl  Cl6  1  0.00000000  0.50000000  0.94146866  1.0
  Cl  Cl7  1  0.50000000  0.50000000  0.00004139  1.0
