# generated using pymatgen
data_NaCl
_symmetry_space_group_name_H-M   'P 1'
_cell_length_a   2.05602502
_cell_length_b   17.96749070
_cell_length_c   15.77068007
_cell_angle_alpha   90.00000000
_cell_angle_beta   42.24959072
_cell_angle_gamma   90.00000000
_symmetry_Int_Tables_number   1
_chemical_formula_structural   NaCl
_chemical_formula_sum   'Na4 Cl4'
_cell_volume   391.71400197
_cell_formula_units_Z   4
loop_
 _symmetry_equiv_pos_site_id
 _symmetry_equiv_pos_as_xyz
  1  'x, y, z'
loop_
 _atom_site_type_symbol
 _atom_site_label
 _atom_site_symmetry_multiplicity
 _atom_site_fract_x
 _atom_site_fract_y
 _atom_site_fract_z
 _atom_site_occupancy
  Na  Na0  1  0.60635674  0.78393102  0.46899183  1.0
  Na  Na1  1  0.21318378  0.26285240  0.69495446  1.0
  Na  Na2  1  0.20985488  0.45544460  0.43599352  1.0
  Na  Na3  1  0.79730892  0.06237671  0.33466946  1.0
  Cl  Cl4  1  0.50000000  0.00000000  0.00000000  1.0
  Cl  Cl5  1  0.50000000  0.50000000  0.00000000  1.0
  Cl  Cl6  1  0.27221322  0.25000000  0.30437335  1.0
  Cl  Cl7  1  0.47242776  0.75000000  0.38891912  1.0
