# generated using pymatgen
data_NaCl
_symmetry_space_group_name_H-M   'P 1'
_cell_length_a   5.65110584
_cell_length_b   5.65110584
_cell_length_c   5.65110584
_cell_angle_alpha   90.00000000
_cell_angle_beta   90.00000000
_cell_angle_gamma   90.00000000
_symmetry_Int_Tables_number   1
_chemical_formula_structural   NaCl
_chemical_formula_sum   'Na4 Cl4'
_cell_volume   180.46804926
_cell_formula_units_Z   4
loop_
 _symmetry_equiv_pos_site_id
 _symmetry_equiv_pos_as_xyz
  1  'x, y, z'
loop_
 _atom_site_type_symbol
 _atom_site_label
 _atom_site_symmetry_multiplicity
 _atom_site_fract_x
 _atom_site_fract_y
 _atom_site_fract_z
 _atom_site_occupancy
  Na  Na0  1  0.84920601  0.84920601  0.84920601  1.0
  Na  Na1  1  0.03473571  0.53473571  0.96526429  1.0
  Na  Na2  1  0.44419173  0.05580827  0.94419173  1.0
  Na  Na3  1  0.58119088  0.41880912  0.91880912  1.0
  Cl  Cl4  1  0.72423029  0.72423029  0.72423029  1.0
  Cl  Cl5  1  0.56809074  0.06809074  0.43190926  1.0
  Cl  Cl6  1  0.62081067  0.87918933  0.12081067  1.0
  Cl  Cl7  1  0.78492235  0.21507765  0.71507765  1.0
