# generated using pymatgen
data_NaCl
_symmetry_space_group_name_H-M   'P 1'
_cell_length_a   6.54108731
_cell_length_b   6.54108731
_cell_length_c   9.53230338
_cell_angle_alpha   90.00000000
_cell_angle_beta   90.00000000
_cell_angle_gamma   90.00000000
_symmetry_Int_Tables_number   1
_chemical_formula_structural   NaCl
_chemical_formula_sum   'Na4 Cl4'
_cell_volume   407.84744708
_cell_formula_units_Z   4
loop_
 _symmetry_equiv_pos_site_id
 _symmetry_equiv_pos_as_xyz
  1  'x, y, z'
loop_
 _atom_site_type_symbol
 _atom_site_label
 _atom_site_symmetry_multiplicity
 _atom_site_fract_x
 _atom_site_fract_y
 _atom_site_fract_z
 _atom_site_occupancy
  Na  Na0  1  0.86521653  0.09520864  0.16334038  1.0
  Na  Na1  1  0.08884038  0.08443701  0.30037198  1.0
  Na  Na2  1  0.32681634  0.46914457  0.80452421  1.0
  Na  Na3  1  0.30022390  0.83829684  0.83798388  1.0
  Cl  Cl4  1  0.88286809  0.37735300  0.22757855  1.0
  Cl  Cl5  1  0.45107675  0.03424043  0.67918791  1.0
  Cl  Cl6  1  0.40421727  0.41737329  0.68614389  1.0
  Cl  Cl7  1  0.12010653  0.63598234  0.25086411  1.0
