# generated using pymatgen
data_NaCl
_symmetry_space_group_name_H-M   'P 1'
_cell_length_a   4.40394595
_cell_length_b   4.40394595
_cell_length_c   14.67609421
_cell_angle_alpha   90.00000000
_cell_angle_beta   90.00000000
_cell_angle_gamma   90.00000000
_symmetry_Int_Tables_number   1
_chemical_formula_structural   NaCl
_chemical_formula_sum   'Na4 Cl4'
_cell_volume   284.63903040
_cell_formula_units_Z   4
loop_
 _symmetry_equiv_pos_site_id
 _symmetry_equiv_pos_as_xyz
  1  'x, y, z'
loop_
 _atom_site_type_symbol
 _atom_site_label
 _atom_site_symmetry_multiplicity
 _atom_site_fract_x
 _atom_site_fract_y
 _atom_site_fract_z
 _atom_site_occupancy
  Na  Na0  1  0.00000000  0.00000000  0.19804894  1.0
  Na  Na1  1  0.00000000  0.00000000  0.10203480  1.0
  Na  Na2  1  0.50000000  0.50000000  0.91855561  1.0
  Na  Na3  1  0.50000000  0.50000000  0.28230705  1.0
  Cl  Cl4  1  0.99873668  0.49873668  0.08134946  1.0
  Cl  Cl5  1  0.21595051  0.71595051  0.00161338  1.0
  Cl  Cl6  1  0.71236433  0.78763567  0.48583720  1.0
  Cl  Cl7  1  0.15663071  0.34336929  0.84903928  1.0
