# generated using pymatgen
data_NaCl
_symmetry_space_group_name_H-M   'P 1'
_cell_length_a   4.01077992
_cell_length_b   17.58971530
_cell_length_c   4.35444612
_cell_angle_alpha   90.00000000
_cell_angle_beta   144.17456524
_cell_angle_gamma   90.00000000
_symmetry_Int_Tables_number   1
_chemical_formula_structural   NaCl
_chemical_formula_sum   'Na4 Cl4'
_cell_volume   179.80931840
_cell_formula_units_Z   4
loop_
 _symmetry_equiv_pos_site_id
 _symmetry_equiv_pos_as_xyz
  1  'x, y, z'
loop_
 _atom_site_type_symbol
 _atom_site_label
 _atom_site_symmetry_multiplicity
 _atom_site_fract_x
 _atom_site_fract_y
 _atom_site_fract_z
 _atom_site_occupancy
  Na  Na0  1  0.00000000  0.17918170  0.50000000  1.0
  Na  Na1  1  0.50000000  0.49997377  0.50000000  1.0
  Na  Na2  1  0.00000000  0.29266642  0.50000000  1.0
  Na  Na3  1  0.50000000  0.02422883  0.50000000  1.0
  Cl  Cl4  1  0.99829390  0.03557074  0.11259240  1.0
  Cl  Cl5  1  0.09746987  0.79067224  0.92312354  1.0
  Cl  Cl6  1  0.87933329  0.92162816  0.59247907  1.0
  Cl  Cl7  1  0.14998254  0.61443036  0.87153564  1.0
