# generated using pymatgen
data_NaCl
_symmetry_space_group_name_H-M   'P 1'
_cell_length_a   5.09589153
_cell_length_b   11.94252350
_cell_length_c   6.51165797
_cell_angle_alpha   90.00000000
_cell_angle_beta   90.00000000
_cell_angle_gamma   90.00000000
_symmetry_Int_Tables_number   1
_chemical_formula_structural   NaCl
_chemical_formula_sum   'Na4 Cl4'
_cell_volume   396.28520674
_cell_formula_units_Z   4
loop_
 _symmetry_equiv_pos_site_id
 _symmetry_equiv_pos_as_xyz
  1  'x, y, z'
loop_
 _atom_site_type_symbol
 _atom_site_label
 _atom_site_symmetry_multiplicity
 _atom_site_fract_x
 _atom_site_fract_y
 _atom_site_fract_z
 _atom_site_occupancy
  Na  Na0  1  0.50000000  0.24009807  0.25569621  1.0
  Na  Na1  1  0.50000000  0.10807261  0.42757961  1.0
  Na  Na2  1  0.50000000  0.66026285  0.36955407  1.0
  Na  Na3  1  0.50000000  0.56233827  0.13903298  1.0
  Cl  Cl4  1  0.04186386  0.28689367  0.21302793  1.0
  Cl  Cl5  1  0.44964612  0.01949779  0.67255037  1.0
  Cl  Cl6  1  0.40894486  0.32082228  0.33994877  1.0
  Cl  Cl7  1  0.67172559  0.13502444  0.06530401  1.0
