# generated using pymatgen
data_NaCl
_symmetry_space_group_name_H-M   'P 1'
_cell_length_a   5.68309744
_cell_length_b   5.68309744
_cell_length_c   10.73659080
_cell_angle_alpha   90.00000000
_cell_angle_beta   90.00000000
_cell_angle_gamma   120.00000000
_symmetry_Int_Tables_number   1
_chemical_formula_structural   NaCl
_chemical_formula_sum   'Na4 Cl4'
_cell_volume   300.30823235
_cell_formula_units_Z   4
loop_
 _symmetry_equiv_pos_site_id
 _symmetry_equiv_pos_as_xyz
  1  'x, y, z'
loop_
 _atom_site_type_symbol
 _atom_site_label
 _atom_site_symmetry_multiplicity
 _atom_site_fract_x
 _atom_site_fract_y
 _atom_site_fract_z
 _atom_site_occupancy
  Na  Na0  1  0.00000000  0.00000000  0.61483352  1.0
  Na  Na1  1  0.99929380  0.75929813  0.86384573  1.0
  Na  Na2  1  0.60648424  0.05784923  0.55923500  1.0
  Na  Na3  1  0.24188120  0.67953177  0.80488139  1.0
  Cl  Cl4  1  0.00000000  0.00000000  0.32159073  1.0
  Cl  Cl5  1  0.91287768  0.66447928  0.19531820  1.0
  Cl  Cl6  1  0.56563535  0.61000784  0.06943076  1.0
  Cl  Cl7  1  0.05858259  0.88253958  0.13287517  1.0
