# generated using pymatgen
data_NaCl
_symmetry_space_group_name_H-M   'P 1'
_cell_length_a   6.76467283
_cell_length_b   6.76467283
_cell_length_c   8.15583547
_cell_angle_alpha   90.00000000
_cell_angle_beta   90.00000000
_cell_angle_gamma   90.00000000
_symmetry_Int_Tables_number   1
_chemical_formula_structural   NaCl
_chemical_formula_sum   'Na4 Cl4'
_cell_volume   373.21754352
_cell_formula_units_Z   4
loop_
 _symmetry_equiv_pos_site_id
 _symmetry_equiv_pos_as_xyz
  1  'x, y, z'
loop_
 _atom_site_type_symbol
 _atom_site_label
 _atom_site_symmetry_multiplicity
 _atom_site_fract_x
 _atom_site_fract_y
 _atom_site_fract_z
 _atom_site_occupancy
  Na  Na0  1  0.83959058  0.19437830  0.11039047  1.0
  Na  Na1  1  0.09395825  0.17081376  0.33934745  1.0
  Na  Na2  1  0.21029991  0.73830265  0.60858910  1.0
  Na  Na3  1  0.45527592  0.84521280  0.43650801  1.0
  Cl  Cl4  1  0.00029934  0.33232550  0.17975846  1.0
  Cl  Cl5  1  0.50250292  0.01951138  0.62574081  1.0
  Cl  Cl6  1  0.43602197  0.40340389  0.17001139  1.0
  Cl  Cl7  1  0.14808428  0.69340438  0.80172478  1.0
