# generated using pymatgen
data_NaCl
_symmetry_space_group_name_H-M   'P 1'
_cell_length_a   2.56944488
_cell_length_b   10.71457101
_cell_length_c   13.65818363
_cell_angle_alpha   90.00000000
_cell_angle_beta   90.00000000
_cell_angle_gamma   90.00000000
_symmetry_Int_Tables_number   1
_chemical_formula_structural   NaCl
_chemical_formula_sum   'Na4 Cl4'
_cell_volume   376.01661928
_cell_formula_units_Z   4
loop_
 _symmetry_equiv_pos_site_id
 _symmetry_equiv_pos_as_xyz
  1  'x, y, z'
loop_
 _atom_site_type_symbol
 _atom_site_label
 _atom_site_symmetry_multiplicity
 _atom_site_fract_x
 _atom_site_fract_y
 _atom_site_fract_z
 _atom_site_occupancy
  Na  Na0  1  0.54978822  0.16723231  0.43291576  1.0
  Na  Na1  1  0.43794335  0.38072118  0.34415380  1.0
  Na  Na2  1  0.76076285  0.17309809  0.15921051  1.0
  Na  Na3  1  0.54380043  0.88811959  0.10669680  1.0
  Cl  Cl4  1  0.97139041  0.13106561  0.44675693  1.0
  Cl  Cl5  1  0.47770016  0.45580634  0.45683880  1.0
  Cl  Cl6  1  0.23693590  0.39330729  0.90126928  1.0
  Cl  Cl7  1  0.25024614  0.84499063  0.30409963  1.0
