# generated using pymatgen
data_NaCl
_symmetry_space_group_name_H-M   'P 1'
_cell_length_a   5.62483266
_cell_length_b   5.62483266
_cell_length_c   5.62483266
_cell_angle_alpha   90.00000000
_cell_angle_beta   90.00000000
_cell_angle_gamma   90.00000000
_symmetry_Int_Tables_number   1
_chemical_formula_structural   NaCl
_chemical_formula_sum   'Na4 Cl4'
_cell_volume   177.96263187
_cell_formula_units_Z   4
loop_
 _symmetry_equiv_pos_site_id
 _symmetry_equiv_pos_as_xyz
  1  'x, y, z'
loop_
 _atom_site_type_symbol
 _atom_site_label
 _atom_site_symmetry_multiplicity
 _atom_site_fract_x
 _atom_site_fract_y
 _atom_site_fract_z
 _atom_site_occupancy
  Na  Na0  1  0.66340859  0.66340859  0.66340859  1.0
  Na  Na1  1  0.91429814  0.41429814  0.08570186  1.0
  Na  Na2  1  0.88759832  0.61240168  0.38759832  1.0
  Na  Na3  1  0.27369230  0.72630770  0.22630770  1.0
  Cl  Cl4  1  0.77483481  0.77483481  0.77483481  1.0
  Cl  Cl5  1  0.68195613  0.18195613  0.31804387  1.0
  Cl  Cl6  1  0.10113542  0.39886458  0.60113542  1.0
  Cl  Cl7  1  0.57337534  0.42662466  0.92662466  1.0
