# generated using pymatgen
data_NaCl
_symmetry_space_group_name_H-M   'P 1'
_cell_length_a   3.56816890
_cell_length_b   17.24378312
_cell_length_c   7.78642355
_cell_angle_alpha   90.00000000
_cell_angle_beta   39.37232458
_cell_angle_gamma   90.00000000
_symmetry_Int_Tables_number   1
_chemical_formula_structural   NaCl
_chemical_formula_sum   'Na4 Cl4'
_cell_volume   303.91339681
_cell_formula_units_Z   4
loop_
 _symmetry_equiv_pos_site_id
 _symmetry_equiv_pos_as_xyz
  1  'x, y, z'
loop_
 _atom_site_type_symbol
 _atom_site_label
 _atom_site_symmetry_multiplicity
 _atom_site_fract_x
 _atom_site_fract_y
 _atom_site_fract_z
 _atom_site_occupancy
  Na  Na0  1  0.55898366  0.31560663  0.79117045  1.0
  Na  Na1  1  0.39797436  0.95574183  0.57438363  1.0
  Na  Na2  1  0.66900970  0.58213152  0.20443625  1.0
  Na  Na3  1  0.47812353  0.75062784  0.93016539  1.0
  Cl  Cl4  1  0.28800603  0.18808654  0.82768146  1.0
  Cl  Cl5  1  0.94835025  0.41754983  0.41670503  1.0
  Cl  Cl6  1  0.11829882  0.59287172  0.55394647  1.0
  Cl  Cl7  1  0.97723093  0.13923734  0.84688037  1.0
