# generated using pymatgen
data_NaCl
_symmetry_space_group_name_H-M   'P 1'
_cell_length_a   3.77300921
_cell_length_b   3.77300921
_cell_length_c   16.77853222
_cell_angle_alpha   90.00000000
_cell_angle_beta   90.00000000
_cell_angle_gamma   90.00000000
_symmetry_Int_Tables_number   1
_chemical_formula_structural   NaCl
_chemical_formula_sum   'Na4 Cl4'
_cell_volume   238.85244808
_cell_formula_units_Z   4
loop_
 _symmetry_equiv_pos_site_id
 _symmetry_equiv_pos_as_xyz
  1  'x, y, z'
loop_
 _atom_site_type_symbol
 _atom_site_label
 _atom_site_symmetry_multiplicity
 _atom_site_fract_x
 _atom_site_fract_y
 _atom_site_fract_z
 _atom_site_occupancy
  Na  Na0  1  0.68985313  0.68985313  0.19856886  1.0
  Na  Na1  1  0.71140781  0.71140781  0.73354433  1.0
  Na  Na2  1  0.64328618  0.35671382  0.44868056  1.0
  Na  Na3  1  0.94408925  0.05591075  0.51665688  1.0
  Cl  Cl4  1  0.50000000  0.00000000  0.24544939  1.0
  Cl  Cl5  1  0.00000000  0.50000000  0.43651550  1.0
  Cl  Cl6  1  0.50000000  0.00000000  0.16101398  1.0
  Cl  Cl7  1  0.00000000  0.50000000  0.13202636  1.0
