# generated using pymatgen
data_NaCl
_symmetry_space_group_name_H-M   'P 1'
_cell_length_a   5.74015580
_cell_length_b   5.74015580
_cell_length_c   5.74015580
_cell_angle_alpha   90.00000000
_cell_angle_beta   90.00000000
_cell_angle_gamma   90.00000000
_symmetry_Int_Tables_number   1
_chemical_formula_structural   NaCl
_chemical_formula_sum   'Na4 Cl4'
_cell_volume   189.13462413
_cell_formula_units_Z   4
loop_
 _symmetry_equiv_pos_site_id
 _symmetry_equiv_pos_as_xyz
  1  'x, y, z'
loop_
 _atom_site_type_symbol
 _atom_site_label
 _atom_site_symmetry_multiplicity
 _atom_site_fract_x
 _atom_site_fract_y
 _atom_site_fract_z
 _atom_site_occupancy
  Na  Na0  1  0.69127654  0.69127654  0.69127654  1.0
  Na  Na1  1  0.27370417  0.77370417  0.72629583  1.0
  Na  Na2  1  0.66562142  0.83437858  0.16562142  1.0
  Na  Na3  1  0.28700031  0.71299969  0.21299969  1.0
  Cl  Cl4  1  0.91783561  0.91783561  0.91783561  1.0
  Cl  Cl5  1  0.06649600  0.56649600  0.93350400  1.0
  Cl  Cl6  1  0.21027313  0.28972687  0.71027313  1.0
  Cl  Cl7  1  0.83187271  0.16812729  0.66812729  1.0
