# generated using pymatgen
data_NaCl
_symmetry_space_group_name_H-M   'P 1'
_cell_length_a   5.72006947
_cell_length_b   5.72006947
_cell_length_c   8.86455117
_cell_angle_alpha   90.00000000
_cell_angle_beta   90.00000000
_cell_angle_gamma   90.00000000
_symmetry_Int_Tables_number   1
_chemical_formula_structural   NaCl
_chemical_formula_sum   'Na4 Cl4'
_cell_volume   290.04097603
_cell_formula_units_Z   4
loop_
 _symmetry_equiv_pos_site_id
 _symmetry_equiv_pos_as_xyz
  1  'x, y, z'
loop_
 _atom_site_type_symbol
 _atom_site_label
 _atom_site_symmetry_multiplicity
 _atom_site_fract_x
 _atom_site_fract_y
 _atom_site_fract_z
 _atom_site_occupancy
  Na  Na0  1  0.53602977  0.53602977  0.00000000  1.0
  Na  Na1  1  0.74900822  0.74900822  0.50000000  1.0
  Na  Na2  1  0.11502145  0.88497855  0.75000000  1.0
  Na  Na3  1  0.31550976  0.68449024  0.25000000  1.0
  Cl  Cl4  1  0.83494153  0.83494153  0.00000000  1.0
  Cl  Cl5  1  0.38408717  0.38408717  0.50000000  1.0
  Cl  Cl6  1  0.76545795  0.23454205  0.75000000  1.0
  Cl  Cl7  1  0.85428032  0.14571968  0.25000000  1.0
