# generated using pymatgen
data_NaCl
_symmetry_space_group_name_H-M   'P 1'
_cell_length_a   4.81543263
_cell_length_b   6.18822475
_cell_length_c   14.02459678
_cell_angle_alpha   90.00000000
_cell_angle_beta   141.73092202
_cell_angle_gamma   90.00000000
_symmetry_Int_Tables_number   1
_chemical_formula_structural   NaCl
_chemical_formula_sum   'Na4 Cl4'
_cell_volume   258.84018720
_cell_formula_units_Z   4
loop_
 _symmetry_equiv_pos_site_id
 _symmetry_equiv_pos_as_xyz
  1  'x, y, z'
loop_
 _atom_site_type_symbol
 _atom_site_label
 _atom_site_symmetry_multiplicity
 _atom_site_fract_x
 _atom_site_fract_y
 _atom_site_fract_z
 _atom_site_occupancy
  Na  Na0  1  0.80941207  0.06618605  0.81738970  1.0
  Na  Na1  1  0.64084639  0.19441833  0.36764871  1.0
  Na  Na2  1  0.60000423  0.50012153  0.18528249  1.0
  Na  Na3  1  0.19654271  0.81653230  0.61271200  1.0
  Cl  Cl4  1  0.81254306  0.00000000  0.53112537  1.0
  Cl  Cl5  1  0.37950139  0.50000000  0.39511360  1.0
  Cl  Cl6  1  0.81774026  0.00000000  0.98178951  1.0
  Cl  Cl7  1  0.66175552  0.50000000  0.88802650  1.0
