# generated using pymatgen
data_NaCl
_symmetry_space_group_name_H-M   'P 1'
_cell_length_a   5.04736765
_cell_length_b   5.04736765
_cell_length_c   5.04736765
_cell_angle_alpha   90.00000000
_cell_angle_beta   90.00000000
_cell_angle_gamma   90.00000000
_symmetry_Int_Tables_number   1
_chemical_formula_structural   NaCl
_chemical_formula_sum   'Na4 Cl4'
_cell_volume   128.58633544
_cell_formula_units_Z   4
loop_
 _symmetry_equiv_pos_site_id
 _symmetry_equiv_pos_as_xyz
  1  'x, y, z'
loop_
 _atom_site_type_symbol
 _atom_site_label
 _atom_site_symmetry_multiplicity
 _atom_site_fract_x
 _atom_site_fract_y
 _atom_site_fract_z
 _atom_site_occupancy
  Na  Na0  1  0.27041760  0.27041760  0.27041760  1.0
  Na  Na1  1  0.93627906  0.43627906  0.06372094  1.0
  Na  Na2  1  0.85214002  0.64785998  0.35214002  1.0
  Na  Na3  1  0.11332281  0.88667719  0.38667719  1.0
  Cl  Cl4  1  0.62757893  0.62757893  0.62757893  1.0
  Cl  Cl5  1  0.73310103  0.23310103  0.26689897  1.0
  Cl  Cl6  1  0.03948237  0.46051763  0.53948237  1.0
  Cl  Cl7  1  0.75395385  0.24604615  0.74604615  1.0
