# generated using pymatgen
data_NaCl
_symmetry_space_group_name_H-M   'P 1'
_cell_length_a   4.99731589
_cell_length_b   4.99731589
_cell_length_c   12.03239402
_cell_angle_alpha   90.00000000
_cell_angle_beta   90.00000000
_cell_angle_gamma   120.00000000
_symmetry_Int_Tables_number   1
_chemical_formula_structural   NaCl
_chemical_formula_sum   'Na4 Cl4'
_cell_volume   260.22935342
_cell_formula_units_Z   4
loop_
 _symmetry_equiv_pos_site_id
 _symmetry_equiv_pos_as_xyz
  1  'x, y, z'
loop_
 _atom_site_type_symbol
 _atom_site_label
 _atom_site_symmetry_multiplicity
 _atom_site_fract_x
 _atom_site_fract_y
 _atom_site_fract_z
 _atom_site_occupancy
  Na  Na0  1  0.33333333  0.66666667  0.67060774  1.0
  Na  Na1  1  0.50667558  0.86982351  0.58442185  1.0
  Na  Na2  1  0.93961371  0.07523051  0.23629083  1.0
  Na  Na3  1  0.53936765  0.12009754  0.89889247  1.0
  Cl  Cl4  1  0.00000000  0.00000000  0.42147885  1.0
  Cl  Cl5  1  0.00000000  0.00000000  0.87690042  1.0
  Cl  Cl6  1  0.33333333  0.66666667  0.97186753  1.0
  Cl  Cl7  1  0.66666667  0.33333333  0.69507908  1.0
