# generated using pymatgen
data_NaCl
_symmetry_space_group_name_H-M   'P 1'
_cell_length_a   4.91997135
_cell_length_b   4.91997135
_cell_length_c   11.25720398
_cell_angle_alpha   90.00000000
_cell_angle_beta   90.00000000
_cell_angle_gamma   90.00000000
_symmetry_Int_Tables_number   1
_chemical_formula_structural   NaCl
_chemical_formula_sum   'Na4 Cl4'
_cell_volume   272.49320884
_cell_formula_units_Z   4
loop_
 _symmetry_equiv_pos_site_id
 _symmetry_equiv_pos_as_xyz
  1  'x, y, z'
loop_
 _atom_site_type_symbol
 _atom_site_label
 _atom_site_symmetry_multiplicity
 _atom_site_fract_x
 _atom_site_fract_y
 _atom_site_fract_z
 _atom_site_occupancy
  Na  Na0  1  0.44479868  0.49802458  0.68586722  1.0
  Na  Na1  1  0.27827385  0.19578193  0.06132708  1.0
  Na  Na2  1  0.63206106  0.41194464  0.38527745  1.0
  Na  Na3  1  0.31441940  0.23740695  0.84845750  1.0
  Cl  Cl4  1  0.09032554  0.31309308  0.97109087  1.0
  Cl  Cl5  1  0.85619746  0.69658075  0.79242170  1.0
  Cl  Cl6  1  0.93646738  0.79006524  0.38010345  1.0
  Cl  Cl7  1  0.22432887  0.56367618  0.04695473  1.0
