# generated using pymatgen
data_NaCl
_symmetry_space_group_name_H-M   'P 1'
_cell_length_a   4.35505495
_cell_length_b   4.35505495
_cell_length_c   17.77786484
_cell_angle_alpha   90.00000000
_cell_angle_beta   90.00000000
_cell_angle_gamma   90.00000000
_symmetry_Int_Tables_number   1
_chemical_formula_structural   NaCl
_chemical_formula_sum   'Na4 Cl4'
_cell_volume   337.18393780
_cell_formula_units_Z   4
loop_
 _symmetry_equiv_pos_site_id
 _symmetry_equiv_pos_as_xyz
  1  'x, y, z'
loop_
 _atom_site_type_symbol
 _atom_site_label
 _atom_site_symmetry_multiplicity
 _atom_site_fract_x
 _atom_site_fract_y
 _atom_site_fract_z
 _atom_site_occupancy
  Na  Na0  1  0.82968286  0.82968286  0.62500000  1.0
  Na  Na1  1  0.79906437  0.79906437  0.12500000  1.0
  Na  Na2  1  0.78889346  0.21110654  0.37500000  1.0
  Na  Na3  1  0.85424923  0.14575077  0.87500000  1.0
  Cl  Cl4  1  0.36255708  0.36255708  0.62500000  1.0
  Cl  Cl5  1  0.32554220  0.32554220  0.12500000  1.0
  Cl  Cl6  1  0.12998989  0.87001011  0.37500000  1.0
  Cl  Cl7  1  0.44882439  0.55117561  0.87500000  1.0
