# generated using pymatgen
data_NaCl
_symmetry_space_group_name_H-M   'P 1'
_cell_length_a   6.78515934
_cell_length_b   6.78515934
_cell_length_c   6.78515934
_cell_angle_alpha   90.00000000
_cell_angle_beta   90.00000000
_cell_angle_gamma   90.00000000
_symmetry_Int_Tables_number   1
_chemical_formula_structural   NaCl
_chemical_formula_sum   'Na4 Cl4'
_cell_volume   312.37779338
_cell_formula_units_Z   4
loop_
 _symmetry_equiv_pos_site_id
 _symmetry_equiv_pos_as_xyz
  1  'x, y, z'
loop_
 _atom_site_type_symbol
 _atom_site_label
 _atom_site_symmetry_multiplicity
 _atom_site_fract_x
 _atom_site_fract_y
 _atom_site_fract_z
 _atom_site_occupancy
  Na  Na0  1  0.69928905  0.69928905  0.69928905  1.0
  Na  Na1  1  0.85495164  0.35495164  0.14504836  1.0
  Na  Na2  1  0.90496884  0.59503116  0.40496884  1.0
  Na  Na3  1  0.30930744  0.69069256  0.19069256  1.0
  Cl  Cl4  1  0.81978239  0.81978239  0.81978239  1.0
  Cl  Cl5  1  0.58039531  0.08039531  0.41960469  1.0
  Cl  Cl6  1  0.21895641  0.28104359  0.71895641  1.0
  Cl  Cl7  1  0.68743924  0.31256076  0.81256076  1.0
