# generated using pymatgen
data_NaCl
_symmetry_space_group_name_H-M   'P 1'
_cell_length_a   2.49481424
_cell_length_b   14.34782940
_cell_length_c   5.45818219
_cell_angle_alpha   90.00000000
_cell_angle_beta   90.00000000
_cell_angle_gamma   90.00000000
_symmetry_Int_Tables_number   1
_chemical_formula_structural   NaCl
_chemical_formula_sum   'Na4 Cl4'
_cell_volume   195.37655447
_cell_formula_units_Z   4
loop_
 _symmetry_equiv_pos_site_id
 _symmetry_equiv_pos_as_xyz
  1  'x, y, z'
loop_
 _atom_site_type_symbol
 _atom_site_label
 _atom_site_symmetry_multiplicity
 _atom_site_fract_x
 _atom_site_fract_y
 _atom_site_fract_z
 _atom_site_occupancy
  Na  Na0  1  0.50831502  0.43924519  0.72551974  1.0
  Na  Na1  1  0.88561391  0.15809258  0.81436425  1.0
  Na  Na2  1  0.78594921  0.59458119  0.82271339  1.0
  Na  Na3  1  0.61572889  0.06236110  0.36524825  1.0
  Cl  Cl4  1  0.00000000  0.65226002  0.09799058  1.0
  Cl  Cl5  1  0.50000000  0.73015932  0.22136048  1.0
  Cl  Cl6  1  0.00000000  0.17174926  0.53820261  1.0
  Cl  Cl7  1  0.50000000  0.15973257  0.96704721  1.0
