# generated using pymatgen
data_NaCl
_symmetry_space_group_name_H-M   'P 1'
_cell_length_a   5.63033891
_cell_length_b   5.63033891
_cell_length_c   12.15217135
_cell_angle_alpha   90.00000000
_cell_angle_beta   90.00000000
_cell_angle_gamma   90.00000000
_symmetry_Int_Tables_number   1
_chemical_formula_structural   NaCl
_chemical_formula_sum   'Na4 Cl4'
_cell_volume   385.23253568
_cell_formula_units_Z   4
loop_
 _symmetry_equiv_pos_site_id
 _symmetry_equiv_pos_as_xyz
  1  'x, y, z'
loop_
 _atom_site_type_symbol
 _atom_site_label
 _atom_site_symmetry_multiplicity
 _atom_site_fract_x
 _atom_site_fract_y
 _atom_site_fract_z
 _atom_site_occupancy
  Na  Na0  1  0.39482194  0.61108832  0.38450868  1.0
  Na  Na1  1  0.49420114  0.25649252  0.35770150  1.0
  Na  Na2  1  0.49397054  0.33700025  0.53065380  1.0
  Na  Na3  1  0.00108833  0.61663060  0.96300938  1.0
  Cl  Cl4  1  0.05725792  0.00046213  0.15773238  1.0
  Cl  Cl5  1  0.95137913  0.73442915  0.40261701  1.0
  Cl  Cl6  1  0.95155599  0.43220471  0.20027798  1.0
  Cl  Cl7  1  0.95710369  0.15094888  0.78253113  1.0
