# generated using pymatgen
data_NaCl
_symmetry_space_group_name_H-M   'P 1'
_cell_length_a   7.13423233
_cell_length_b   13.12345028
_cell_length_c   4.44387522
_cell_angle_alpha   90.00000000
_cell_angle_beta   38.54047945
_cell_angle_gamma   90.00000000
_symmetry_Int_Tables_number   1
_chemical_formula_structural   NaCl
_chemical_formula_sum   'Na4 Cl4'
_cell_volume   259.23411793
_cell_formula_units_Z   4
loop_
 _symmetry_equiv_pos_site_id
 _symmetry_equiv_pos_as_xyz
  1  'x, y, z'
loop_
 _atom_site_type_symbol
 _atom_site_label
 _atom_site_symmetry_multiplicity
 _atom_site_fract_x
 _atom_site_fract_y
 _atom_site_fract_z
 _atom_site_occupancy
  Na  Na0  1  0.00000000  0.48860691  0.25000000  1.0
  Na  Na1  1  0.00000000  0.05237853  0.75000000  1.0
  Na  Na2  1  0.50000000  0.50000000  0.00000000  1.0
  Na  Na3  1  0.50000000  0.50000000  0.50000000  1.0
  Cl  Cl4  1  0.24483012  0.24764478  0.16212591  1.0
  Cl  Cl5  1  0.80153614  0.16503082  0.87995270  1.0
  Cl  Cl6  1  0.39635886  0.81396823  0.27934056  1.0
  Cl  Cl7  1  0.33438536  0.44447590  0.47852085  1.0
