# generated using pymatgen
data_NaCl
_symmetry_space_group_name_H-M   'P 1'
_cell_length_a   4.99508357
_cell_length_b   4.99508357
_cell_length_c   4.99508357
_cell_angle_alpha   90.00000000
_cell_angle_beta   90.00000000
_cell_angle_gamma   90.00000000
_symmetry_Int_Tables_number   1
_chemical_formula_structural   NaCl
_chemical_formula_sum   'Na4 Cl4'
_cell_volume   124.63163020
_cell_formula_units_Z   4
loop_
 _symmetry_equiv_pos_site_id
 _symmetry_equiv_pos_as_xyz
  1  'x, y, z'
loop_
 _atom_site_type_symbol
 _atom_site_label
 _atom_site_symmetry_multiplicity
 _atom_site_fract_x
 _atom_site_fract_y
 _atom_site_fract_z
 _atom_site_occupancy
  Na  Na0  1  0.44540872  0.44540872  0.44540872  1.0
  Na  Na1  1  0.05256028  0.55256028  0.94743972  1.0
  Na  Na2  1  0.59697127  0.90302873  0.09697127  1.0
  Na  Na3  1  0.07613713  0.92386287  0.42386287  1.0
  Cl  Cl4  1  0.82385866  0.82385866  0.82385866  1.0
  Cl  Cl5  1  0.43931698  0.93931698  0.56068302  1.0
  Cl  Cl6  1  0.44450991  0.05549009  0.94450991  1.0
  Cl  Cl7  1  0.20723779  0.79276221  0.29276221  1.0
