# generated using pymatgen
data_NaCl
_symmetry_space_group_name_H-M   'P 1'
_cell_length_a   2.96197055
_cell_length_b   13.01227192
_cell_length_c   12.17264313
_cell_angle_alpha   90.00000000
_cell_angle_beta   60.32246672
_cell_angle_gamma   90.00000000
_symmetry_Int_Tables_number   1
_chemical_formula_structural   NaCl
_chemical_formula_sum   'Na4 Cl4'
_cell_volume   407.61619268
_cell_formula_units_Z   4
loop_
 _symmetry_equiv_pos_site_id
 _symmetry_equiv_pos_as_xyz
  1  'x, y, z'
loop_
 _atom_site_type_symbol
 _atom_site_label
 _atom_site_symmetry_multiplicity
 _atom_site_fract_x
 _atom_site_fract_y
 _atom_site_fract_z
 _atom_site_occupancy
  Na  Na0  1  0.39180975  0.63308619  0.62008815  1.0
  Na  Na1  1  0.18429005  0.81319713  0.00277839  1.0
  Na  Na2  1  0.83154382  0.84976777  0.34477873  1.0
  Na  Na3  1  0.15376860  0.55399488  0.77853876  1.0
  Cl  Cl4  1  0.00021907  0.06480238  0.45305297  1.0
  Cl  Cl5  1  0.89464779  0.28503913  0.22669126  1.0
  Cl  Cl6  1  0.04476545  0.56648308  0.89810542  1.0
  Cl  Cl7  1  0.62089683  0.28965387  0.91367897  1.0
