# generated using pymatgen
data_NaCl
_symmetry_space_group_name_H-M   'P 1'
_cell_length_a   6.68564668
_cell_length_b   5.10184418
_cell_length_c   6.66110998
_cell_angle_alpha   90.00000000
_cell_angle_beta   66.15748815
_cell_angle_gamma   90.00000000
_symmetry_Int_Tables_number   1
_chemical_formula_structural   NaCl
_chemical_formula_sum   'Na4 Cl4'
_cell_volume   207.81500471
_cell_formula_units_Z   4
loop_
 _symmetry_equiv_pos_site_id
 _symmetry_equiv_pos_as_xyz
  1  'x, y, z'
loop_
 _atom_site_type_symbol
 _atom_site_label
 _atom_site_symmetry_multiplicity
 _atom_site_fract_x
 _atom_site_fract_y
 _atom_site_fract_z
 _atom_site_occupancy
  Na  Na0  1  0.15767149  0.67783135  0.38349367  1.0
  Na  Na1  1  0.44187390  0.10564582  0.59857315  1.0
  Na  Na2  1  0.33107202  0.05162763  0.45533987  1.0
  Na  Na3  1  0.49331179  0.83495637  0.92696511  1.0
  Cl  Cl4  1  0.95202714  0.09411343  0.06906715  1.0
  Cl  Cl5  1  0.09060107  0.68513091  0.97874616  1.0
  Cl  Cl6  1  0.68734069  0.17066890  0.95142902  1.0
  Cl  Cl7  1  0.72355364  0.16342887  0.60410008  1.0
