# generated using pymatgen
data_NaCl
_symmetry_space_group_name_H-M   'P 1'
_cell_length_a   4.76009437
_cell_length_b   4.76009437
_cell_length_c   10.17207849
_cell_angle_alpha   90.00000000
_cell_angle_beta   90.00000000
_cell_angle_gamma   90.00000000
_symmetry_Int_Tables_number   1
_chemical_formula_structural   NaCl
_chemical_formula_sum   'Na4 Cl4'
_cell_volume   230.48402431
_cell_formula_units_Z   4
loop_
 _symmetry_equiv_pos_site_id
 _symmetry_equiv_pos_as_xyz
  1  'x, y, z'
loop_
 _atom_site_type_symbol
 _atom_site_label
 _atom_site_symmetry_multiplicity
 _atom_site_fract_x
 _atom_site_fract_y
 _atom_site_fract_z
 _atom_site_occupancy
  Na  Na0  1  0.37440308  0.52666300  0.34607362  1.0
  Na  Na1  1  0.34220537  0.18320752  0.95531386  1.0
  Na  Na2  1  0.48528978  0.17858644  0.54314880  1.0
  Na  Na3  1  0.05166832  0.57507503  0.95220130  1.0
  Cl  Cl4  1  0.05548345  0.00061743  0.15302371  1.0
  Cl  Cl5  1  0.92829670  0.87963351  0.30071986  1.0
  Cl  Cl6  1  0.94831082  0.49199459  0.10232928  1.0
  Cl  Cl7  1  0.79169646  0.20217934  0.87478556  1.0
