# generated using pymatgen
data_NaCl
_symmetry_space_group_name_H-M   'P 1'
_cell_length_a   5.68576735
_cell_length_b   5.68576735
_cell_length_c   12.19964221
_cell_angle_alpha   90.00000000
_cell_angle_beta   90.00000000
_cell_angle_gamma   90.00000000
_symmetry_Int_Tables_number   1
_chemical_formula_structural   NaCl
_chemical_formula_sum   'Na4 Cl4'
_cell_volume   394.38942775
_cell_formula_units_Z   4
loop_
 _symmetry_equiv_pos_site_id
 _symmetry_equiv_pos_as_xyz
  1  'x, y, z'
loop_
 _atom_site_type_symbol
 _atom_site_label
 _atom_site_symmetry_multiplicity
 _atom_site_fract_x
 _atom_site_fract_y
 _atom_site_fract_z
 _atom_site_occupancy
  Na  Na0  1  0.40141525  0.67910790  0.29427284  1.0
  Na  Na1  1  0.43597816  0.12662613  0.46800883  1.0
  Na  Na2  1  0.51478661  0.25569845  0.12977393  1.0
  Na  Na3  1  0.04664117  0.68904700  0.50958276  1.0
  Cl  Cl4  1  0.08786629  0.03769350  0.05184414  1.0
  Cl  Cl5  1  0.95324611  0.72414596  0.23103099  1.0
  Cl  Cl6  1  0.93421359  0.52395616  0.65819406  1.0
  Cl  Cl7  1  0.99902305  0.35183587  0.30065501  1.0
