# generated using pymatgen
data_NaCl
_symmetry_space_group_name_H-M   'P 1'
_cell_length_a   5.96536255
_cell_length_b   5.96536255
_cell_length_c   9.37731419
_cell_angle_alpha   90.00000000
_cell_angle_beta   90.00000000
_cell_angle_gamma   90.00000000
_symmetry_Int_Tables_number   1
_chemical_formula_structural   NaCl
_chemical_formula_sum   'Na4 Cl4'
_cell_volume   333.69688628
_cell_formula_units_Z   4
loop_
 _symmetry_equiv_pos_site_id
 _symmetry_equiv_pos_as_xyz
  1  'x, y, z'
loop_
 _atom_site_type_symbol
 _atom_site_label
 _atom_site_symmetry_multiplicity
 _atom_site_fract_x
 _atom_site_fract_y
 _atom_site_fract_z
 _atom_site_occupancy
  Na  Na0  1  0.39302591  0.65509133  0.30338910  1.0
  Na  Na1  1  0.54146360  0.23384061  0.34762184  1.0
  Na  Na2  1  0.50795645  0.30690588  0.57662831  1.0
  Na  Na3  1  0.04400499  0.54045981  0.22315855  1.0
  Cl  Cl4  1  0.00016690  0.03186014  0.15619222  1.0
  Cl  Cl5  1  0.87861329  0.88752781  0.22696975  1.0
  Cl  Cl6  1  0.96534986  0.43503142  0.11729092  1.0
  Cl  Cl7  1  0.87466107  0.37849839  0.79037638  1.0
