# generated using pymatgen
data_NaCl
_symmetry_space_group_name_H-M   'P 1'
_cell_length_a   4.91459230
_cell_length_b   7.53944231
_cell_length_c   7.58318406
_cell_angle_alpha   90.00000000
_cell_angle_beta   90.00000000
_cell_angle_gamma   90.00000000
_symmetry_Int_Tables_number   1
_chemical_formula_structural   NaCl
_chemical_formula_sum   'Na4 Cl4'
_cell_volume   280.98188112
_cell_formula_units_Z   4
loop_
 _symmetry_equiv_pos_site_id
 _symmetry_equiv_pos_as_xyz
  1  'x, y, z'
loop_
 _atom_site_type_symbol
 _atom_site_label
 _atom_site_symmetry_multiplicity
 _atom_site_fract_x
 _atom_site_fract_y
 _atom_site_fract_z
 _atom_site_occupancy
  Na  Na0  1  0.00000000  0.64796219  0.43900105  1.0
  Na  Na1  1  0.00000000  0.21957744  0.98199273  1.0
  Na  Na2  1  0.50000000  0.63060527  0.08265662  1.0
  Na  Na3  1  0.50000000  0.22171611  0.90431569  1.0
  Cl  Cl4  1  0.00000000  0.00000000  0.07900564  1.0
  Cl  Cl5  1  0.50000000  0.50000000  0.17473908  1.0
  Cl  Cl6  1  0.00000000  0.50000000  0.86320384  1.0
  Cl  Cl7  1  0.50000000  0.00000000  0.90938375  1.0
