# generated using pymatgen
data_NaCl
_symmetry_space_group_name_H-M   'P 1'
_cell_length_a   5.32885439
_cell_length_b   11.57000105
_cell_length_c   4.81353421
_cell_angle_alpha   90.00000000
_cell_angle_beta   90.00000000
_cell_angle_gamma   90.00000000
_symmetry_Int_Tables_number   1
_chemical_formula_structural   NaCl
_chemical_formula_sum   'Na4 Cl4'
_cell_volume   296.77773396
_cell_formula_units_Z   4
loop_
 _symmetry_equiv_pos_site_id
 _symmetry_equiv_pos_as_xyz
  1  'x, y, z'
loop_
 _atom_site_type_symbol
 _atom_site_label
 _atom_site_symmetry_multiplicity
 _atom_site_fract_x
 _atom_site_fract_y
 _atom_site_fract_z
 _atom_site_occupancy
  Na  Na0  1  0.29236496  0.73170879  0.88574003  1.0
  Na  Na1  1  0.74385020  0.30925418  0.80303077  1.0
  Na  Na2  1  0.81873759  0.38053031  0.25105238  1.0
  Na  Na3  1  0.06154668  0.42898561  0.20926682  1.0
  Cl  Cl4  1  0.04145289  0.29982878  0.11841352  1.0
  Cl  Cl5  1  0.55106587  0.84798887  0.02206996  1.0
  Cl  Cl6  1  0.04521327  0.63307067  0.42143857  1.0
  Cl  Cl7  1  0.30627671  0.62855140  0.40080593  1.0
