# generated using pymatgen
data_NaCl
_symmetry_space_group_name_H-M   'P 1'
_cell_length_a   6.57439686
_cell_length_b   6.57439686
_cell_length_c   6.57439686
_cell_angle_alpha   90.00000000
_cell_angle_beta   90.00000000
_cell_angle_gamma   90.00000000
_symmetry_Int_Tables_number   1
_chemical_formula_structural   NaCl
_chemical_formula_sum   'Na4 Cl4'
_cell_volume   284.16314419
_cell_formula_units_Z   4
loop_
 _symmetry_equiv_pos_site_id
 _symmetry_equiv_pos_as_xyz
  1  'x, y, z'
loop_
 _atom_site_type_symbol
 _atom_site_label
 _atom_site_symmetry_multiplicity
 _atom_site_fract_x
 _atom_site_fract_y
 _atom_site_fract_z
 _atom_site_occupancy
  Na  Na0  1  0.48682704  0.48682704  0.48682704  1.0
  Na  Na1  1  0.01963542  0.51963542  0.98036458  1.0
  Na  Na2  1  0.65363031  0.84636969  0.15363031  1.0
  Na  Na3  1  0.87995159  0.12004841  0.62004841  1.0
  Cl  Cl4  1  0.06336338  0.06336338  0.06336338  1.0
  Cl  Cl5  1  0.43745602  0.93745602  0.56254398  1.0
  Cl  Cl6  1  0.54856101  0.95143899  0.04856101  1.0
  Cl  Cl7  1  0.03821418  0.96178582  0.46178582  1.0
