# generated using pymatgen
data_NaCl
_symmetry_space_group_name_H-M   'P 1'
_cell_length_a   4.72256292
_cell_length_b   7.58345677
_cell_length_c   2.51020701
_cell_angle_alpha   90.00000000
_cell_angle_beta   59.35261562
_cell_angle_gamma   90.00000000
_symmetry_Int_Tables_number   1
_chemical_formula_structural   NaCl
_chemical_formula_sum   'Na4 Cl4'
_cell_volume   77.34191184
_cell_formula_units_Z   4
loop_
 _symmetry_equiv_pos_site_id
 _symmetry_equiv_pos_as_xyz
  1  'x, y, z'
loop_
 _atom_site_type_symbol
 _atom_site_label
 _atom_site_symmetry_multiplicity
 _atom_site_fract_x
 _atom_site_fract_y
 _atom_site_fract_z
 _atom_site_occupancy
  Na  Na0  1  0.21784815  0.76726006  0.42154257  1.0
  Na  Na1  1  0.54744510  0.03812315  0.04146893  1.0
  Na  Na2  1  0.93575150  0.97512779  0.51127339  1.0
  Na  Na3  1  0.13360500  0.38658403  0.96618951  1.0
  Cl  Cl4  1  0.94139292  0.10463698  0.04028040  1.0
  Cl  Cl5  1  0.09169471  0.71589021  0.93740199  1.0
  Cl  Cl6  1  0.34913790  0.61766939  0.95704089  1.0
  Cl  Cl7  1  0.88425704  0.58387000  0.00371010  1.0
