# generated using pymatgen
data_NaCl
_symmetry_space_group_name_H-M   'P 1'
_cell_length_a   3.26150082
_cell_length_b   5.99282855
_cell_length_c   5.96365020
_cell_angle_alpha   90.00000000
_cell_angle_beta   90.00000000
_cell_angle_gamma   90.00000000
_symmetry_Int_Tables_number   1
_chemical_formula_structural   NaCl
_chemical_formula_sum   'Na4 Cl4'
_cell_volume   116.56321218
_cell_formula_units_Z   4
loop_
 _symmetry_equiv_pos_site_id
 _symmetry_equiv_pos_as_xyz
  1  'x, y, z'
loop_
 _atom_site_type_symbol
 _atom_site_label
 _atom_site_symmetry_multiplicity
 _atom_site_fract_x
 _atom_site_fract_y
 _atom_site_fract_z
 _atom_site_occupancy
  Na  Na0  1  0.23978931  0.52163979  0.47343784  1.0
  Na  Na1  1  0.15441011  0.04528981  0.66907293  1.0
  Na  Na2  1  0.79485522  0.91347225  0.65105803  1.0
  Na  Na3  1  0.47169387  0.28327390  0.41351731  1.0
  Cl  Cl4  1  0.90770455  0.64535959  0.27364229  1.0
  Cl  Cl5  1  0.40906103  0.62701066  0.01873385  1.0
  Cl  Cl6  1  0.12319799  0.72977575  0.41366488  1.0
  Cl  Cl7  1  0.56157019  0.79316435  0.21417181  1.0
