# generated using pymatgen
data_NaCl
_symmetry_space_group_name_H-M   'P 1'
_cell_length_a   7.31217117
_cell_length_b   7.04294291
_cell_length_c   3.39799881
_cell_angle_alpha   90.00000000
_cell_angle_beta   55.69700474
_cell_angle_gamma   90.00000000
_symmetry_Int_Tables_number   1
_chemical_formula_structural   NaCl
_chemical_formula_sum   'Na4 Cl4'
_cell_volume   144.55728301
_cell_formula_units_Z   4
loop_
 _symmetry_equiv_pos_site_id
 _symmetry_equiv_pos_as_xyz
  1  'x, y, z'
loop_
 _atom_site_type_symbol
 _atom_site_label
 _atom_site_symmetry_multiplicity
 _atom_site_fract_x
 _atom_site_fract_y
 _atom_site_fract_z
 _atom_site_occupancy
  Na  Na0  1  0.44974869  0.67927904  0.56621591  1.0
  Na  Na1  1  0.37945472  0.19171711  0.38929641  1.0
  Na  Na2  1  0.75926121  0.88525631  0.40264449  1.0
  Na  Na3  1  0.88365056  0.42314896  0.04025382  1.0
  Cl  Cl4  1  0.16406461  0.03709716  0.00046513  1.0
  Cl  Cl5  1  0.13216509  0.71349213  0.14058071  1.0
  Cl  Cl6  1  0.93919013  0.52792716  0.68470710  1.0
  Cl  Cl7  1  0.84193823  0.65400503  0.68848119  1.0
