# generated using pymatgen
data_NaCl
_symmetry_space_group_name_H-M   'P 1'
_cell_length_a   9.20552261
_cell_length_b   7.34140680
_cell_length_c   5.86879905
_cell_angle_alpha   90.00000000
_cell_angle_beta   55.87212056
_cell_angle_gamma   90.00000000
_symmetry_Int_Tables_number   1
_chemical_formula_structural   NaCl
_chemical_formula_sum   'Na4 Cl4'
_cell_volume   328.31884312
_cell_formula_units_Z   4
loop_
 _symmetry_equiv_pos_site_id
 _symmetry_equiv_pos_as_xyz
  1  'x, y, z'
loop_
 _atom_site_type_symbol
 _atom_site_label
 _atom_site_symmetry_multiplicity
 _atom_site_fract_x
 _atom_site_fract_y
 _atom_site_fract_z
 _atom_site_occupancy
  Na  Na0  1  0.50000000  0.50000000  0.00000000  1.0
  Na  Na1  1  0.50000000  0.50000000  0.50000000  1.0
  Na  Na2  1  0.50000000  0.12415033  0.25000000  1.0
  Na  Na3  1  0.50000000  0.75332068  0.75000000  1.0
  Cl  Cl4  1  0.81414821  0.87222617  0.05038741  1.0
  Cl  Cl5  1  0.97141259  0.42712811  0.92289431  1.0
  Cl  Cl6  1  0.32506255  0.68546931  0.22922774  1.0
  Cl  Cl7  1  0.54873270  0.24116603  0.68026491  1.0
