# generated using pymatgen
data_NaCl
_symmetry_space_group_name_H-M   'P 1'
_cell_length_a   4.25565494
_cell_length_b   15.31432150
_cell_length_c   6.17928677
_cell_angle_alpha   90.00000000
_cell_angle_beta   41.94511910
_cell_angle_gamma   90.00000000
_symmetry_Int_Tables_number   1
_chemical_formula_structural   NaCl
_chemical_formula_sum   'Na4 Cl4'
_cell_volume   269.18506702
_cell_formula_units_Z   4
loop_
 _symmetry_equiv_pos_site_id
 _symmetry_equiv_pos_as_xyz
  1  'x, y, z'
loop_
 _atom_site_type_symbol
 _atom_site_label
 _atom_site_symmetry_multiplicity
 _atom_site_fract_x
 _atom_site_fract_y
 _atom_site_fract_z
 _atom_site_occupancy
  Na  Na0  1  0.42635760  0.41340848  0.65945787  1.0
  Na  Na1  1  0.54840479  0.94302785  0.16391394  1.0
  Na  Na2  1  0.14724597  0.51323552  0.40446709  1.0
  Na  Na3  1  0.56627481  0.58642922  0.58846796  1.0
  Cl  Cl4  1  0.15837693  0.05201793  0.06087363  1.0
  Cl  Cl5  1  0.88536060  0.73670556  0.18496249  1.0
  Cl  Cl6  1  0.61559737  0.17703622  0.63413904  1.0
  Cl  Cl7  1  0.51631034  0.42637753  0.14262515  1.0
