# generated using pymatgen
data_NaCl
_symmetry_space_group_name_H-M   'P 1'
_cell_length_a   5.01660417
_cell_length_b   15.33421211
_cell_length_c   7.62851182
_cell_angle_alpha   90.00000000
_cell_angle_beta   23.05338860
_cell_angle_gamma   90.00000000
_symmetry_Int_Tables_number   1
_chemical_formula_structural   NaCl
_chemical_formula_sum   'Na4 Cl4'
_cell_volume   229.79536577
_cell_formula_units_Z   4
loop_
 _symmetry_equiv_pos_site_id
 _symmetry_equiv_pos_as_xyz
  1  'x, y, z'
loop_
 _atom_site_type_symbol
 _atom_site_label
 _atom_site_symmetry_multiplicity
 _atom_site_fract_x
 _atom_site_fract_y
 _atom_site_fract_z
 _atom_site_occupancy
  Na  Na0  1  0.41770535  0.43399690  0.09424232  1.0
  Na  Na1  1  0.67173907  0.35188906  0.32529223  1.0
  Na  Na2  1  0.00688510  0.91071247  0.41870313  1.0
  Na  Na3  1  0.93303519  0.40048448  0.58688524  1.0
  Cl  Cl4  1  0.20857203  0.21504610  0.16426241  1.0
  Cl  Cl5  1  0.06749309  0.73802831  0.18806055  1.0
  Cl  Cl6  1  0.10552909  0.30452947  0.59226781  1.0
  Cl  Cl7  1  0.94895580  0.51407231  0.26452112  1.0
