# generated using pymatgen
data_NaCl
_symmetry_space_group_name_H-M   'P 1'
_cell_length_a   7.58351476
_cell_length_b   5.70046760
_cell_length_c   6.37650526
_cell_angle_alpha   90.00000000
_cell_angle_beta   90.00000000
_cell_angle_gamma   90.00000000
_symmetry_Int_Tables_number   1
_chemical_formula_structural   NaCl
_chemical_formula_sum   'Na4 Cl4'
_cell_volume   275.65364543
_cell_formula_units_Z   4
loop_
 _symmetry_equiv_pos_site_id
 _symmetry_equiv_pos_as_xyz
  1  'x, y, z'
loop_
 _atom_site_type_symbol
 _atom_site_label
 _atom_site_symmetry_multiplicity
 _atom_site_fract_x
 _atom_site_fract_y
 _atom_site_fract_z
 _atom_site_occupancy
  Na  Na0  1  0.53517475  0.51194870  0.53520854  1.0
  Na  Na1  1  0.63396104  0.03520667  0.23061884  1.0
  Na  Na2  1  0.07844775  0.52311933  0.38086604  1.0
  Na  Na3  1  0.05614347  0.15619277  0.67998776  1.0
  Cl  Cl4  1  0.03974819  0.51351104  0.05697231  1.0
  Cl  Cl5  1  0.94897762  0.61560090  0.21246867  1.0
  Cl  Cl6  1  0.15341988  0.76657197  0.53825997  1.0
  Cl  Cl7  1  0.22634644  0.92678151  0.90313516  1.0
