# generated using pymatgen
data_NaCl
_symmetry_space_group_name_H-M   'P 1'
_cell_length_a   2.99717506
_cell_length_b   14.97542697
_cell_length_c   4.63918237
_cell_angle_alpha   90.00000000
_cell_angle_beta   90.00000000
_cell_angle_gamma   90.00000000
_symmetry_Int_Tables_number   1
_chemical_formula_structural   NaCl
_chemical_formula_sum   'Na4 Cl4'
_cell_volume   208.22495121
_cell_formula_units_Z   4
loop_
 _symmetry_equiv_pos_site_id
 _symmetry_equiv_pos_as_xyz
  1  'x, y, z'
loop_
 _atom_site_type_symbol
 _atom_site_label
 _atom_site_symmetry_multiplicity
 _atom_site_fract_x
 _atom_site_fract_y
 _atom_site_fract_z
 _atom_site_occupancy
  Na  Na0  1  0.25000000  0.38854077  0.73926481  1.0
  Na  Na1  1  0.75000000  0.30079975  0.66286386  1.0
  Na  Na2  1  0.25000000  0.94471687  0.71644607  1.0
  Na  Na3  1  0.75000000  0.45874990  0.63040227  1.0
  Cl  Cl4  1  0.25000000  0.07672995  0.13835460  1.0
  Cl  Cl5  1  0.75000000  0.90573850  0.77663022  1.0
  Cl  Cl6  1  0.25000000  0.66967311  0.38476150  1.0
  Cl  Cl7  1  0.75000000  0.59191890  0.30595572  1.0
