# generated using pymatgen
data_NaCl
_symmetry_space_group_name_H-M   'P 1'
_cell_length_a   5.59158232
_cell_length_b   16.36997766
_cell_length_c   3.75173688
_cell_angle_alpha   90.00000000
_cell_angle_beta   90.00000000
_cell_angle_gamma   90.00000000
_symmetry_Int_Tables_number   1
_chemical_formula_structural   NaCl
_chemical_formula_sum   'Na4 Cl4'
_cell_volume   343.41177494
_cell_formula_units_Z   4
loop_
 _symmetry_equiv_pos_site_id
 _symmetry_equiv_pos_as_xyz
  1  'x, y, z'
loop_
 _atom_site_type_symbol
 _atom_site_label
 _atom_site_symmetry_multiplicity
 _atom_site_fract_x
 _atom_site_fract_y
 _atom_site_fract_z
 _atom_site_occupancy
  Na  Na0  1  0.46515162  0.57783255  0.71339868  1.0
  Na  Na1  1  0.52499875  0.27795224  0.42280170  1.0
  Na  Na2  1  0.99962925  0.00777138  0.62034211  1.0
  Na  Na3  1  0.02423324  0.54197092  0.94785865  1.0
  Cl  Cl4  1  0.01887529  0.03436182  0.90945340  1.0
  Cl  Cl5  1  0.89355936  0.84746704  0.27092376  1.0
  Cl  Cl6  1  0.98464769  0.45222704  0.92461891  1.0
  Cl  Cl7  1  0.18939848  0.33724386  0.90495131  1.0
