# generated using pymatgen
data_NaCl
_symmetry_space_group_name_H-M   'P 1'
_cell_length_a   6.64152417
_cell_length_b   14.56385689
_cell_length_c   3.02030132
_cell_angle_alpha   90.00000000
_cell_angle_beta   90.00000000
_cell_angle_gamma   90.00000000
_symmetry_Int_Tables_number   1
_chemical_formula_structural   NaCl
_chemical_formula_sum   'Na4 Cl4'
_cell_volume   292.14229232
_cell_formula_units_Z   4
loop_
 _symmetry_equiv_pos_site_id
 _symmetry_equiv_pos_as_xyz
  1  'x, y, z'
loop_
 _atom_site_type_symbol
 _atom_site_label
 _atom_site_symmetry_multiplicity
 _atom_site_fract_x
 _atom_site_fract_y
 _atom_site_fract_z
 _atom_site_occupancy
  Na  Na0  1  0.50319031  0.57781825  0.62426486  1.0
  Na  Na1  1  0.47948853  0.23463769  0.24851749  1.0
  Na  Na2  1  0.26514216  0.06538618  0.84270963  1.0
  Na  Na3  1  0.03361124  0.38336838  0.75353662  1.0
  Cl  Cl4  1  0.00000000  0.00000000  0.01761287  1.0
  Cl  Cl5  1  0.50000000  0.50000000  0.43602235  1.0
  Cl  Cl6  1  0.00000000  0.50000000  0.66267644  1.0
  Cl  Cl7  1  0.50000000  0.00000000  0.49638858  1.0
