# generated using pymatgen
data_NaCl
_symmetry_space_group_name_H-M   'P 1'
_cell_length_a   5.06662899
_cell_length_b   7.96820684
_cell_length_c   4.56200721
_cell_angle_alpha   90.00000000
_cell_angle_beta   90.00000000
_cell_angle_gamma   90.00000000
_symmetry_Int_Tables_number   1
_chemical_formula_structural   NaCl
_chemical_formula_sum   'Na4 Cl4'
_cell_volume   184.17711683
_cell_formula_units_Z   4
loop_
 _symmetry_equiv_pos_site_id
 _symmetry_equiv_pos_as_xyz
  1  'x, y, z'
loop_
 _atom_site_type_symbol
 _atom_site_label
 _atom_site_symmetry_multiplicity
 _atom_site_fract_x
 _atom_site_fract_y
 _atom_site_fract_z
 _atom_site_occupancy
  Na  Na0  1  0.60350589  0.54248156  0.45970706  1.0
  Na  Na1  1  0.36296597  0.19997343  0.28172559  1.0
  Na  Na2  1  0.65579829  0.27246641  0.83928047  1.0
  Na  Na3  1  0.09106476  0.65676287  0.95653138  1.0
  Cl  Cl4  1  0.82345780  0.85493398  0.20087124  1.0
  Cl  Cl5  1  0.94900577  0.77073805  0.23715384  1.0
  Cl  Cl6  1  0.35030198  0.23651301  0.93333689  1.0
  Cl  Cl7  1  0.06390602  0.41552661  0.05760248  1.0
