# generated using pymatgen
data_NaCl
_symmetry_space_group_name_H-M   'P 1'
_cell_length_a   5.28526443
_cell_length_b   10.50477665
_cell_length_c   5.05308437
_cell_angle_alpha   90.00000000
_cell_angle_beta   60.14070199
_cell_angle_gamma   90.00000000
_symmetry_Int_Tables_number   1
_chemical_formula_structural   NaCl
_chemical_formula_sum   'Na4 Cl4'
_cell_volume   243.30706847
_cell_formula_units_Z   4
loop_
 _symmetry_equiv_pos_site_id
 _symmetry_equiv_pos_as_xyz
  1  'x, y, z'
loop_
 _atom_site_type_symbol
 _atom_site_label
 _atom_site_symmetry_multiplicity
 _atom_site_fract_x
 _atom_site_fract_y
 _atom_site_fract_z
 _atom_site_occupancy
  Na  Na0  1  0.48538355  0.78363446  0.43749317  1.0
  Na  Na1  1  0.45180717  0.78107274  0.96572236  1.0
  Na  Na2  1  0.18675405  0.23699708  0.06430918  1.0
  Na  Na3  1  0.67022839  0.69378979  0.60064210  1.0
  Cl  Cl4  1  0.89871812  0.68602836  0.03199714  1.0
  Cl  Cl5  1  0.89143872  0.81604521  0.67617526  1.0
  Cl  Cl6  1  0.88574280  0.29019570  0.98058048  1.0
  Cl  Cl7  1  0.58267313  0.42495773  0.83759237  1.0
