# generated using pymatgen
data_NaCl
_symmetry_space_group_name_H-M   'P 1'
_cell_length_a   6.55100039
_cell_length_b   6.55100039
_cell_length_c   6.55100039
_cell_angle_alpha   90.00000000
_cell_angle_beta   90.00000000
_cell_angle_gamma   90.00000000
_symmetry_Int_Tables_number   1
_chemical_formula_structural   NaCl
_chemical_formula_sum   'Na4 Cl4'
_cell_volume   281.14015236
_cell_formula_units_Z   4
loop_
 _symmetry_equiv_pos_site_id
 _symmetry_equiv_pos_as_xyz
  1  'x, y, z'
loop_
 _atom_site_type_symbol
 _atom_site_label
 _atom_site_symmetry_multiplicity
 _atom_site_fract_x
 _atom_site_fract_y
 _atom_site_fract_z
 _atom_site_occupancy
  Na  Na0  1  0.38606011  0.38606011  0.38606011  1.0
  Na  Na1  1  0.94567104  0.44567104  0.05432896  1.0
  Na  Na2  1  0.65568222  0.84431778  0.15568222  1.0
  Na  Na3  1  0.86684539  0.13315461  0.63315461  1.0
  Cl  Cl4  1  0.03108705  0.03108705  0.03108705  1.0
  Cl  Cl5  1  0.48180508  0.98180508  0.51819492  1.0
  Cl  Cl6  1  0.55484371  0.94515629  0.05484371  1.0
  Cl  Cl7  1  0.33864363  0.66135637  0.16135637  1.0
