# generated using pymatgen
data_NaCl
_symmetry_space_group_name_H-M   'P 1'
_cell_length_a   8.67817689
_cell_length_b   8.67817689
_cell_length_c   5.18114047
_cell_angle_alpha   90.00000000
_cell_angle_beta   90.00000000
_cell_angle_gamma   90.00000000
_symmetry_Int_Tables_number   1
_chemical_formula_structural   NaCl
_chemical_formula_sum   'Na4 Cl4'
_cell_volume   390.19559607
_cell_formula_units_Z   4
loop_
 _symmetry_equiv_pos_site_id
 _symmetry_equiv_pos_as_xyz
  1  'x, y, z'
loop_
 _atom_site_type_symbol
 _atom_site_label
 _atom_site_symmetry_multiplicity
 _atom_site_fract_x
 _atom_site_fract_y
 _atom_site_fract_z
 _atom_site_occupancy
  Na  Na0  1  0.55234323  0.41848195  0.79771541  1.0
  Na  Na1  1  0.40101356  0.12807120  0.76263981  1.0
  Na  Na2  1  0.51393923  0.69812407  0.37320658  1.0
  Na  Na3  1  0.07585547  0.49465593  0.31540649  1.0
  Cl  Cl4  1  0.48729589  0.13721320  0.18121024  1.0
  Cl  Cl5  1  0.60941577  0.90813913  0.11023197  1.0
  Cl  Cl6  1  0.63780587  0.28501896  0.09392785  1.0
  Cl  Cl7  1  0.76537833  0.77066875  0.38450629  1.0
