# generated using pymatgen
data_NaCl
_symmetry_space_group_name_H-M   'P 1'
_cell_length_a   5.94156517
_cell_length_b   5.94156517
_cell_length_c   10.75447724
_cell_angle_alpha   90.00000000
_cell_angle_beta   90.00000000
_cell_angle_gamma   90.00000000
_symmetry_Int_Tables_number   1
_chemical_formula_structural   NaCl
_chemical_formula_sum   'Na4 Cl4'
_cell_volume   379.65667060
_cell_formula_units_Z   4
loop_
 _symmetry_equiv_pos_site_id
 _symmetry_equiv_pos_as_xyz
  1  'x, y, z'
loop_
 _atom_site_type_symbol
 _atom_site_label
 _atom_site_symmetry_multiplicity
 _atom_site_fract_x
 _atom_site_fract_y
 _atom_site_fract_z
 _atom_site_occupancy
  Na  Na0  1  0.46310682  0.61173423  0.42656722  1.0
  Na  Na1  1  0.42344960  0.31707636  0.92416977  1.0
  Na  Na2  1  0.48638768  0.74722944  0.68109602  1.0
  Na  Na3  1  0.96647062  0.28384421  0.79172344  1.0
  Cl  Cl4  1  0.00000000  0.00000000  0.50000000  1.0
  Cl  Cl5  1  0.00000000  0.50000000  0.82295271  1.0
  Cl  Cl6  1  0.50000000  0.00000000  0.05637189  1.0
  Cl  Cl7  1  0.50000000  0.50000000  0.00000000  1.0
