# generated using pymatgen
data_NaCl
_symmetry_space_group_name_H-M   'P 1'
_cell_length_a   7.09135363
_cell_length_b   7.09135363
_cell_length_c   7.09135363
_cell_angle_alpha   90.00000000
_cell_angle_beta   90.00000000
_cell_angle_gamma   90.00000000
_symmetry_Int_Tables_number   1
_chemical_formula_structural   NaCl
_chemical_formula_sum   'Na4 Cl4'
_cell_volume   356.60500120
_cell_formula_units_Z   4
loop_
 _symmetry_equiv_pos_site_id
 _symmetry_equiv_pos_as_xyz
  1  'x, y, z'
loop_
 _atom_site_type_symbol
 _atom_site_label
 _atom_site_symmetry_multiplicity
 _atom_site_fract_x
 _atom_site_fract_y
 _atom_site_fract_z
 _atom_site_occupancy
  Na  Na0  1  0.24136638  0.24136638  0.24136638  1.0
  Na  Na1  1  0.71396018  0.21396018  0.28603982  1.0
  Na  Na2  1  0.48283601  0.01716399  0.98283601  1.0
  Na  Na3  1  0.34466146  0.65533854  0.15533854  1.0
  Cl  Cl4  1  0.59509821  0.59509821  0.59509821  1.0
  Cl  Cl5  1  0.40859309  0.90859309  0.59140691  1.0
  Cl  Cl6  1  0.13161894  0.36838106  0.63161894  1.0
  Cl  Cl7  1  0.86602236  0.13397764  0.63397764  1.0
