# generated using pymatgen
data_NaCl
_symmetry_space_group_name_H-M   'P 1'
_cell_length_a   4.77923497
_cell_length_b   11.92451701
_cell_length_c   3.73809810
_cell_angle_alpha   90.00000000
_cell_angle_beta   90.00000000
_cell_angle_gamma   90.00000000
_symmetry_Int_Tables_number   1
_chemical_formula_structural   NaCl
_chemical_formula_sum   'Na4 Cl4'
_cell_volume   213.03446751
_cell_formula_units_Z   4
loop_
 _symmetry_equiv_pos_site_id
 _symmetry_equiv_pos_as_xyz
  1  'x, y, z'
loop_
 _atom_site_type_symbol
 _atom_site_label
 _atom_site_symmetry_multiplicity
 _atom_site_fract_x
 _atom_site_fract_y
 _atom_site_fract_z
 _atom_site_occupancy
  Na  Na0  1  0.00000000  0.00000000  0.29167841  1.0
  Na  Na1  1  0.00000000  0.50000000  0.95252394  1.0
  Na  Na2  1  0.50000000  0.00000000  0.49632450  1.0
  Na  Na3  1  0.50000000  0.50000000  0.65744073  1.0
  Cl  Cl4  1  0.17042296  0.39868973  0.01901728  1.0
  Cl  Cl5  1  0.99994995  0.91378675  0.75646835  1.0
  Cl  Cl6  1  0.73716239  0.35141818  0.43779350  1.0
  Cl  Cl7  1  0.62641662  0.37601236  0.88907459  1.0
