# generated using pymatgen
data_NaCl
_symmetry_space_group_name_H-M   'P 1'
_cell_length_a   3.71712388
_cell_length_b   3.71712388
_cell_length_c   9.22609281
_cell_angle_alpha   90.00000000
_cell_angle_beta   90.00000000
_cell_angle_gamma   90.00000000
_symmetry_Int_Tables_number   1
_chemical_formula_structural   NaCl
_chemical_formula_sum   'Na4 Cl4'
_cell_volume   127.47701606
_cell_formula_units_Z   4
loop_
 _symmetry_equiv_pos_site_id
 _symmetry_equiv_pos_as_xyz
  1  'x, y, z'
loop_
 _atom_site_type_symbol
 _atom_site_label
 _atom_site_symmetry_multiplicity
 _atom_site_fract_x
 _atom_site_fract_y
 _atom_site_fract_z
 _atom_site_occupancy
  Na  Na0  1  0.35163893  0.85163893  0.39075250  1.0
  Na  Na1  1  0.52005910  0.02005910  0.87972314  1.0
  Na  Na2  1  0.25739845  0.24260155  0.36681038  1.0
  Na  Na3  1  0.83488532  0.66511468  0.36938835  1.0
  Cl  Cl4  1  0.02131761  0.52131761  0.11555403  1.0
  Cl  Cl5  1  0.91395562  0.41395562  0.73590881  1.0
  Cl  Cl6  1  0.73844365  0.76155635  0.99931313  1.0
  Cl  Cl7  1  0.82533969  0.67466031  0.14129657  1.0
