# generated using pymatgen
data_NaCl
_symmetry_space_group_name_H-M   'P 1'
_cell_length_a   9.37523410
_cell_length_b   8.09152256
_cell_length_c   3.23328548
_cell_angle_alpha   96.79290598
_cell_angle_beta   61.84735903
_cell_angle_gamma   89.36178362
_symmetry_Int_Tables_number   1
_chemical_formula_structural   NaCl
_chemical_formula_sum   'Na4 Cl4'
_cell_volume   214.11217170
_cell_formula_units_Z   4
loop_
 _symmetry_equiv_pos_site_id
 _symmetry_equiv_pos_as_xyz
  1  'x, y, z'
loop_
 _atom_site_type_symbol
 _atom_site_label
 _atom_site_symmetry_multiplicity
 _atom_site_fract_x
 _atom_site_fract_y
 _atom_site_fract_z
 _atom_site_occupancy
  Na  Na0  1  0.00000000  0.00000000  0.00000000  1.0
  Na  Na1  1  0.50000000  0.00000000  0.00000000  1.0
  Na  Na2  1  0.50000000  0.00000000  0.50000000  1.0
  Na  Na3  1  0.50000000  0.50000000  0.50000000  1.0
  Cl  Cl4  1  0.12343118  0.22274409  0.12562686  1.0
  Cl  Cl5  1  0.60734687  0.70932632  0.35980047  1.0
  Cl  Cl6  1  0.85847079  0.43374629  0.73585396  1.0
  Cl  Cl7  1  0.43948523  0.25040203  0.15121848  1.0
