# generated using pymatgen
data_NaCl
_symmetry_space_group_name_H-M   'P 1'
_cell_length_a   6.22696936
_cell_length_b   12.64268358
_cell_length_c   3.60861578
_cell_angle_alpha   90.00000000
_cell_angle_beta   61.36038987
_cell_angle_gamma   90.00000000
_symmetry_Int_Tables_number   1
_chemical_formula_structural   NaCl
_chemical_formula_sum   'Na4 Cl4'
_cell_volume   249.33250793
_cell_formula_units_Z   4
loop_
 _symmetry_equiv_pos_site_id
 _symmetry_equiv_pos_as_xyz
  1  'x, y, z'
loop_
 _atom_site_type_symbol
 _atom_site_label
 _atom_site_symmetry_multiplicity
 _atom_site_fract_x
 _atom_site_fract_y
 _atom_site_fract_z
 _atom_site_occupancy
  Na  Na0  1  0.48962271  0.47331040  0.66713372  1.0
  Na  Na1  1  0.48917110  0.22510103  0.84975953  1.0
  Na  Na2  1  0.72100571  0.96978019  0.33937839  1.0
  Na  Na3  1  0.87342263  0.20264508  0.88456516  1.0
  Cl  Cl4  1  0.05694464  0.04393591  0.03475268  1.0
  Cl  Cl5  1  0.00003771  0.80538376  0.71795361  1.0
  Cl  Cl6  1  0.86630948  0.50096153  0.87312533  1.0
  Cl  Cl7  1  0.70849418  0.67887354  0.03212254  1.0
