# generated using pymatgen
data_NaCl
_symmetry_space_group_name_H-M   'P 1'
_cell_length_a   6.88180752
_cell_length_b   13.62245588
_cell_length_c   3.58557622
_cell_angle_alpha   90.00000000
_cell_angle_beta   55.27441081
_cell_angle_gamma   90.00000000
_symmetry_Int_Tables_number   1
_chemical_formula_structural   NaCl
_chemical_formula_sum   'Na4 Cl4'
_cell_volume   276.26790446
_cell_formula_units_Z   4
loop_
 _symmetry_equiv_pos_site_id
 _symmetry_equiv_pos_as_xyz
  1  'x, y, z'
loop_
 _atom_site_type_symbol
 _atom_site_label
 _atom_site_symmetry_multiplicity
 _atom_site_fract_x
 _atom_site_fract_y
 _atom_site_fract_z
 _atom_site_occupancy
  Na  Na0  1  0.46590923  0.59372253  0.44253375  1.0
  Na  Na1  1  0.42731636  0.97483365  0.87226329  1.0
  Na  Na2  1  0.73330031  0.51571727  0.05183550  1.0
  Na  Na3  1  0.01145092  0.66614795  0.53948185  1.0
  Cl  Cl4  1  0.00000000  0.03121178  0.00000000  1.0
  Cl  Cl5  1  0.50000000  0.81203387  0.00000000  1.0
  Cl  Cl6  1  0.00000000  0.26332978  0.00000000  1.0
  Cl  Cl7  1  0.50000000  0.42847055  0.00000000  1.0
