# generated using pymatgen
data_NaCl
_symmetry_space_group_name_H-M   'P 1'
_cell_length_a   4.71975797
_cell_length_b   4.71975797
_cell_length_c   12.13562406
_cell_angle_alpha   90.00000000
_cell_angle_beta   90.00000000
_cell_angle_gamma   90.00000000
_symmetry_Int_Tables_number   1
_chemical_formula_structural   NaCl
_chemical_formula_sum   'Na4 Cl4'
_cell_volume   270.33456074
_cell_formula_units_Z   4
loop_
 _symmetry_equiv_pos_site_id
 _symmetry_equiv_pos_as_xyz
  1  'x, y, z'
loop_
 _atom_site_type_symbol
 _atom_site_label
 _atom_site_symmetry_multiplicity
 _atom_site_fract_x
 _atom_site_fract_y
 _atom_site_fract_z
 _atom_site_occupancy
  Na  Na0  1  0.39742228  0.89742228  0.31824071  1.0
  Na  Na1  1  0.55107441  0.05107441  0.83103544  1.0
  Na  Na2  1  0.25582512  0.24417488  0.29657285  1.0
  Na  Na3  1  0.86305645  0.63694355  0.22303525  1.0
  Cl  Cl4  1  0.50000000  0.00000000  0.11050446  1.0
  Cl  Cl5  1  0.00000000  0.50000000  0.74721734  1.0
  Cl  Cl6  1  0.50000000  0.00000000  0.93013144  1.0
  Cl  Cl7  1  0.00000000  0.50000000  0.05925670  1.0
