# generated using pymatgen
data_NaCl
_symmetry_space_group_name_H-M   'P 1'
_cell_length_a   5.66015232
_cell_length_b   5.66015232
_cell_length_c   10.13703438
_cell_angle_alpha   90.00000000
_cell_angle_beta   90.00000000
_cell_angle_gamma   90.00000000
_symmetry_Int_Tables_number   1
_chemical_formula_structural   NaCl
_chemical_formula_sum   'Na4 Cl4'
_cell_volume   324.76345773
_cell_formula_units_Z   4
loop_
 _symmetry_equiv_pos_site_id
 _symmetry_equiv_pos_as_xyz
  1  'x, y, z'
loop_
 _atom_site_type_symbol
 _atom_site_label
 _atom_site_symmetry_multiplicity
 _atom_site_fract_x
 _atom_site_fract_y
 _atom_site_fract_z
 _atom_site_occupancy
  Na  Na0  1  0.36451476  0.60287787  0.65650340  1.0
  Na  Na1  1  0.58755098  0.22528805  0.41302657  1.0
  Na  Na2  1  0.38201938  0.20177302  0.06210442  1.0
  Na  Na3  1  0.58456508  0.52541518  0.49906755  1.0
  Cl  Cl4  1  0.18797570  0.07951367  0.59197416  1.0
  Cl  Cl5  1  0.96998114  0.72800921  0.34326062  1.0
  Cl  Cl6  1  0.97821947  0.50793877  0.71585848  1.0
  Cl  Cl7  1  0.87656849  0.15910821  0.31672833  1.0
