# generated using pymatgen
data_NaCl
_symmetry_space_group_name_H-M   'P 1'
_cell_length_a   4.28696822
_cell_length_b   8.82648823
_cell_length_c   6.27869604
_cell_angle_alpha   90.00000000
_cell_angle_beta   90.00000000
_cell_angle_gamma   90.00000000
_symmetry_Int_Tables_number   1
_chemical_formula_structural   NaCl
_chemical_formula_sum   'Na4 Cl4'
_cell_volume   237.57879171
_cell_formula_units_Z   4
loop_
 _symmetry_equiv_pos_site_id
 _symmetry_equiv_pos_as_xyz
  1  'x, y, z'
loop_
 _atom_site_type_symbol
 _atom_site_label
 _atom_site_symmetry_multiplicity
 _atom_site_fract_x
 _atom_site_fract_y
 _atom_site_fract_z
 _atom_site_occupancy
  Na  Na0  1  0.00000000  0.00000000  0.75113987  1.0
  Na  Na1  1  0.50000000  0.50000000  0.12075645  1.0
  Na  Na2  1  0.00000000  0.50000000  0.31026861  1.0
  Na  Na3  1  0.50000000  0.00000000  0.38273516  1.0
  Cl  Cl4  1  0.01831316  0.12186599  0.03863381  1.0
  Cl  Cl5  1  0.14464344  0.81134225  0.88895814  1.0
  Cl  Cl6  1  0.91656941  0.26041681  0.99919961  1.0
  Cl  Cl7  1  0.98165859  0.27543514  0.29651229  1.0
