# generated using pymatgen
data_NaCl
_symmetry_space_group_name_H-M   'P 1'
_cell_length_a   2.46120061
_cell_length_b   24.05337140
_cell_length_c   5.11130598
_cell_angle_alpha   90.00000000
_cell_angle_beta   90.00000000
_cell_angle_gamma   90.00000000
_symmetry_Int_Tables_number   1
_chemical_formula_structural   NaCl
_chemical_formula_sum   'Na4 Cl4'
_cell_volume   302.59019501
_cell_formula_units_Z   4
loop_
 _symmetry_equiv_pos_site_id
 _symmetry_equiv_pos_as_xyz
  1  'x, y, z'
loop_
 _atom_site_type_symbol
 _atom_site_label
 _atom_site_symmetry_multiplicity
 _atom_site_fract_x
 _atom_site_fract_y
 _atom_site_fract_z
 _atom_site_occupancy
  Na  Na0  1  0.22841389  0.43147406  0.45090403  1.0
  Na  Na1  1  0.86706511  0.19561244  0.96962573  1.0
  Na  Na2  1  0.87372258  0.04738230  0.49912316  1.0
  Na  Na3  1  0.80438276  0.42131650  0.64633225  1.0
  Cl  Cl4  1  0.15972525  0.06886737  0.05842542  1.0
  Cl  Cl5  1  0.40822257  0.75851824  0.42583620  1.0
  Cl  Cl6  1  0.44564827  0.55628863  0.64845894  1.0
  Cl  Cl7  1  0.80951553  0.60438597  0.94006378  1.0
