# generated using pymatgen
data_NaCl
_symmetry_space_group_name_H-M   'P 1'
_cell_length_a   6.30082691
_cell_length_b   6.30082691
_cell_length_c   6.30082691
_cell_angle_alpha   90.00000000
_cell_angle_beta   90.00000000
_cell_angle_gamma   90.00000000
_symmetry_Int_Tables_number   1
_chemical_formula_structural   NaCl
_chemical_formula_sum   'Na4 Cl4'
_cell_volume   250.14547310
_cell_formula_units_Z   4
loop_
 _symmetry_equiv_pos_site_id
 _symmetry_equiv_pos_as_xyz
  1  'x, y, z'
loop_
 _atom_site_type_symbol
 _atom_site_label
 _atom_site_symmetry_multiplicity
 _atom_site_fract_x
 _atom_site_fract_y
 _atom_site_fract_z
 _atom_site_occupancy
  Na  Na0  1  0.49064927  0.49064927  0.49064927  1.0
  Na  Na1  1  0.96734075  0.46734075  0.03265925  1.0
  Na  Na2  1  0.72177976  0.77822024  0.22177976  1.0
  Na  Na3  1  0.85786026  0.14213974  0.64213974  1.0
  Cl  Cl4  1  0.00170301  0.00170301  0.00170301  1.0
  Cl  Cl5  1  0.40874006  0.90874006  0.59125994  1.0
  Cl  Cl6  1  0.50313654  0.99686346  0.00313654  1.0
  Cl  Cl7  1  0.95636743  0.04363257  0.54363257  1.0
