# generated using pymatgen
data_NaCl
_symmetry_space_group_name_H-M   'P 1'
_cell_length_a   6.66938217
_cell_length_b   12.94742205
_cell_length_c   5.24359703
_cell_angle_alpha   90.00000000
_cell_angle_beta   47.36345944
_cell_angle_gamma   90.00000000
_symmetry_Int_Tables_number   1
_chemical_formula_structural   NaCl
_chemical_formula_sum   'Na4 Cl4'
_cell_volume   333.10293909
_cell_formula_units_Z   4
loop_
 _symmetry_equiv_pos_site_id
 _symmetry_equiv_pos_as_xyz
  1  'x, y, z'
loop_
 _atom_site_type_symbol
 _atom_site_label
 _atom_site_symmetry_multiplicity
 _atom_site_fract_x
 _atom_site_fract_y
 _atom_site_fract_z
 _atom_site_occupancy
  Na  Na0  1  0.66169357  0.77855527  0.53199830  1.0
  Na  Na1  1  0.34546431  0.84811286  0.99977716  1.0
  Na  Na2  1  0.18346242  0.04212206  0.11797190  1.0
  Na  Na3  1  0.47072041  0.67230117  0.64151731  1.0
  Cl  Cl4  1  0.13407459  0.26792972  0.00053461  1.0
  Cl  Cl5  1  0.89940475  0.70793849  0.68036842  1.0
  Cl  Cl6  1  0.73198409  0.07231808  0.80899332  1.0
  Cl  Cl7  1  0.63508246  0.34156078  0.42103225  1.0
