# generated using pymatgen
data_NaCl
_symmetry_space_group_name_H-M   'P 1'
_cell_length_a   5.79627557
_cell_length_b   5.79627557
_cell_length_c   6.41303932
_cell_angle_alpha   90.00000000
_cell_angle_beta   90.00000000
_cell_angle_gamma   90.00000000
_symmetry_Int_Tables_number   1
_chemical_formula_structural   NaCl
_chemical_formula_sum   'Na4 Cl4'
_cell_volume   215.45766666
_cell_formula_units_Z   4
loop_
 _symmetry_equiv_pos_site_id
 _symmetry_equiv_pos_as_xyz
  1  'x, y, z'
loop_
 _atom_site_type_symbol
 _atom_site_label
 _atom_site_symmetry_multiplicity
 _atom_site_fract_x
 _atom_site_fract_y
 _atom_site_fract_z
 _atom_site_occupancy
  Na  Na0  1  0.43805105  0.52161931  0.05175010  1.0
  Na  Na1  1  0.55733668  0.91101858  0.39514332  1.0
  Na  Na2  1  0.63377439  0.47928744  0.58694419  1.0
  Na  Na3  1  0.42553079  0.58427372  0.85174675  1.0
  Cl  Cl4  1  0.20965480  0.25017376  0.12780302  1.0
  Cl  Cl5  1  0.74933328  0.87251421  0.26072590  1.0
  Cl  Cl6  1  0.13381790  0.08570496  0.82749379  1.0
  Cl  Cl7  1  0.99929663  0.59539444  0.34606491  1.0
