# generated using pymatgen
data_NaCl
_symmetry_space_group_name_H-M   'P 1'
_cell_length_a   6.90548712
_cell_length_b   6.90548712
_cell_length_c   5.35120220
_cell_angle_alpha   90.00000000
_cell_angle_beta   90.00000000
_cell_angle_gamma   90.00000000
_symmetry_Int_Tables_number   1
_chemical_formula_structural   NaCl
_chemical_formula_sum   'Na4 Cl4'
_cell_volume   255.17610296
_cell_formula_units_Z   4
loop_
 _symmetry_equiv_pos_site_id
 _symmetry_equiv_pos_as_xyz
  1  'x, y, z'
loop_
 _atom_site_type_symbol
 _atom_site_label
 _atom_site_symmetry_multiplicity
 _atom_site_fract_x
 _atom_site_fract_y
 _atom_site_fract_z
 _atom_site_occupancy
  Na  Na0  1  0.00000000  0.00000000  0.87290675  1.0
  Na  Na1  1  0.00000000  0.00000000  0.61709649  1.0
  Na  Na2  1  0.50000000  0.50000000  0.62082071  1.0
  Na  Na3  1  0.50000000  0.50000000  0.15688679  1.0
  Cl  Cl4  1  0.06049464  0.43950536  0.25000000  1.0
  Cl  Cl5  1  0.67443768  0.82556232  0.25000000  1.0
  Cl  Cl6  1  0.18684041  0.68684041  0.75000000  1.0
  Cl  Cl7  1  0.79429580  0.29429580  0.75000000  1.0
