# generated using pymatgen
data_NaCl
_symmetry_space_group_name_H-M   'P 1'
_cell_length_a   5.41435797
_cell_length_b   5.41435797
_cell_length_c   4.19461197
_cell_angle_alpha   90.00000000
_cell_angle_beta   90.00000000
_cell_angle_gamma   90.00000000
_symmetry_Int_Tables_number   1
_chemical_formula_structural   NaCl
_chemical_formula_sum   'Na4 Cl4'
_cell_volume   122.96619179
_cell_formula_units_Z   4
loop_
 _symmetry_equiv_pos_site_id
 _symmetry_equiv_pos_as_xyz
  1  'x, y, z'
loop_
 _atom_site_type_symbol
 _atom_site_label
 _atom_site_symmetry_multiplicity
 _atom_site_fract_x
 _atom_site_fract_y
 _atom_site_fract_z
 _atom_site_occupancy
  Na  Na0  1  0.16086450  0.16086450  0.00000000  1.0
  Na  Na1  1  0.40008839  0.40008839  0.50000000  1.0
  Na  Na2  1  0.11264311  0.88735689  0.75000000  1.0
  Na  Na3  1  0.06558564  0.93441436  0.25000000  1.0
  Cl  Cl4  1  0.45565045  0.45565045  0.00000000  1.0
  Cl  Cl5  1  0.88999661  0.88999661  0.50000000  1.0
  Cl  Cl6  1  0.73990724  0.26009276  0.75000000  1.0
  Cl  Cl7  1  0.85139766  0.14860234  0.25000000  1.0
