# generated using pymatgen
data_NaCl
_symmetry_space_group_name_H-M   'P 1'
_cell_length_a   7.02002950
_cell_length_b   7.02002950
_cell_length_c   6.15670438
_cell_angle_alpha   90.00000000
_cell_angle_beta   90.00000000
_cell_angle_gamma   90.00000000
_symmetry_Int_Tables_number   1
_chemical_formula_structural   NaCl
_chemical_formula_sum   'Na4 Cl4'
_cell_volume   303.40740452
_cell_formula_units_Z   4
loop_
 _symmetry_equiv_pos_site_id
 _symmetry_equiv_pos_as_xyz
  1  'x, y, z'
loop_
 _atom_site_type_symbol
 _atom_site_label
 _atom_site_symmetry_multiplicity
 _atom_site_fract_x
 _atom_site_fract_y
 _atom_site_fract_z
 _atom_site_occupancy
  Na  Na0  1  0.63602394  0.46617132  0.29931390  1.0
  Na  Na1  1  0.45639621  0.15494524  0.63724563  1.0
  Na  Na2  1  0.96447000  0.43264072  0.22558020  1.0
  Na  Na3  1  0.12484041  0.59340994  0.47121025  1.0
  Cl  Cl4  1  0.88012029  0.08160237  0.13024945  1.0
  Cl  Cl5  1  0.70813757  0.71225898  0.91581624  1.0
  Cl  Cl6  1  0.92213749  0.63149238  0.70814298  1.0
  Cl  Cl7  1  0.55209851  0.30843976  0.45122215  1.0
