# generated using pymatgen
data_NaCl
_symmetry_space_group_name_H-M   'P 1'
_cell_length_a   7.68863868
_cell_length_b   8.96077356
_cell_length_c   6.48043068
_cell_angle_alpha   90.00000000
_cell_angle_beta   65.44518206
_cell_angle_gamma   90.00000000
_symmetry_Int_Tables_number   1
_chemical_formula_structural   NaCl
_chemical_formula_sum   'Na4 Cl4'
_cell_volume   406.09919884
_cell_formula_units_Z   4
loop_
 _symmetry_equiv_pos_site_id
 _symmetry_equiv_pos_as_xyz
  1  'x, y, z'
loop_
 _atom_site_type_symbol
 _atom_site_label
 _atom_site_symmetry_multiplicity
 _atom_site_fract_x
 _atom_site_fract_y
 _atom_site_fract_z
 _atom_site_occupancy
  Na  Na0  1  0.63634122  0.42994703  0.82199460  1.0
  Na  Na1  1  0.88880971  0.35795330  0.12613408  1.0
  Na  Na2  1  0.81556949  0.57789842  0.23908779  1.0
  Na  Na3  1  0.37349263  0.58685862  0.13150297  1.0
  Cl  Cl4  1  0.02323381  0.05752886  0.24306713  1.0
  Cl  Cl5  1  0.71699509  0.77303526  0.24135864  1.0
  Cl  Cl6  1  0.65720596  0.17879551  0.81223729  1.0
  Cl  Cl7  1  0.38816893  0.24341394  0.49783948  1.0
