# generated using pymatgen
data_NaCl
_symmetry_space_group_name_H-M   'P 1'
_cell_length_a   5.99141976
_cell_length_b   5.99141976
_cell_length_c   6.60184978
_cell_angle_alpha   90.00000000
_cell_angle_beta   90.00000000
_cell_angle_gamma   90.00000000
_symmetry_Int_Tables_number   1
_chemical_formula_structural   NaCl
_chemical_formula_sum   'Na4 Cl4'
_cell_volume   236.98733264
_cell_formula_units_Z   4
loop_
 _symmetry_equiv_pos_site_id
 _symmetry_equiv_pos_as_xyz
  1  'x, y, z'
loop_
 _atom_site_type_symbol
 _atom_site_label
 _atom_site_symmetry_multiplicity
 _atom_site_fract_x
 _atom_site_fract_y
 _atom_site_fract_z
 _atom_site_occupancy
  Na  Na0  1  0.46667308  0.71884743  0.33401929  1.0
  Na  Na1  1  0.33957277  0.18100635  0.37801622  1.0
  Na  Na2  1  0.52600093  0.19491482  0.15602058  1.0
  Na  Na3  1  0.03316413  0.53031133  0.50988414  1.0
  Cl  Cl4  1  0.07806639  0.03922656  0.06251820  1.0
  Cl  Cl5  1  0.87715915  0.77767301  0.12428339  1.0
  Cl  Cl6  1  0.82163625  0.54443537  0.60721411  1.0
  Cl  Cl7  1  0.87567781  0.72282726  0.25005927  1.0
