# generated using pymatgen
data_NaCl
_symmetry_space_group_name_H-M   'P 1'
_cell_length_a   11.22995113
_cell_length_b   7.82664039
_cell_length_c   5.63790123
_cell_angle_alpha   90.00000000
_cell_angle_beta   55.79861635
_cell_angle_gamma   90.00000000
_symmetry_Int_Tables_number   1
_chemical_formula_structural   NaCl
_chemical_formula_sum   'Na4 Cl4'
_cell_volume   409.83722494
_cell_formula_units_Z   4
loop_
 _symmetry_equiv_pos_site_id
 _symmetry_equiv_pos_as_xyz
  1  'x, y, z'
loop_
 _atom_site_type_symbol
 _atom_site_label
 _atom_site_symmetry_multiplicity
 _atom_site_fract_x
 _atom_site_fract_y
 _atom_site_fract_z
 _atom_site_occupancy
  Na  Na0  1  0.39001278  0.60326622  0.84239641  1.0
  Na  Na1  1  0.21593252  0.26069482  0.47086186  1.0
  Na  Na2  1  0.59436081  0.64629881  0.12839977  1.0
  Na  Na3  1  0.46619124  0.61150836  0.05217337  1.0
  Cl  Cl4  1  0.29278810  0.54914103  0.44271632  1.0
  Cl  Cl5  1  0.60071367  0.50825697  0.02553712  1.0
  Cl  Cl6  1  0.37284280  0.04093032  0.63698591  1.0
  Cl  Cl7  1  0.69795001  0.11904666  0.47253003  1.0
