# generated using pymatgen
data_NaCl
_symmetry_space_group_name_H-M   'P 1'
_cell_length_a   5.50774369
_cell_length_b   14.40085314
_cell_length_c   4.16244958
_cell_angle_alpha   90.00000000
_cell_angle_beta   90.00000000
_cell_angle_gamma   90.00000000
_symmetry_Int_Tables_number   1
_chemical_formula_structural   NaCl
_chemical_formula_sum   'Na4 Cl4'
_cell_volume   330.14971673
_cell_formula_units_Z   4
loop_
 _symmetry_equiv_pos_site_id
 _symmetry_equiv_pos_as_xyz
  1  'x, y, z'
loop_
 _atom_site_type_symbol
 _atom_site_label
 _atom_site_symmetry_multiplicity
 _atom_site_fract_x
 _atom_site_fract_y
 _atom_site_fract_z
 _atom_site_occupancy
  Na  Na0  1  0.62812162  0.55539134  0.69871809  1.0
  Na  Na1  1  0.43767416  0.24066900  0.86795930  1.0
  Na  Na2  1  0.77687632  0.12211349  0.06615737  1.0
  Na  Na3  1  0.17894489  0.63695470  0.95580194  1.0
  Cl  Cl4  1  0.12428546  0.82636002  0.12823294  1.0
  Cl  Cl5  1  0.77938029  0.69837350  0.18202745  1.0
  Cl  Cl6  1  0.99233788  0.14648306  0.59919295  1.0
  Cl  Cl7  1  0.17718332  0.32976160  0.86655546  1.0
