# generated using pymatgen
data_NaCl
_symmetry_space_group_name_H-M   'P 1'
_cell_length_a   3.47716307
_cell_length_b   10.38708242
_cell_length_c   5.20414271
_cell_angle_alpha   90.00000000
_cell_angle_beta   90.00000000
_cell_angle_gamma   90.00000000
_symmetry_Int_Tables_number   1
_chemical_formula_structural   NaCl
_chemical_formula_sum   'Na4 Cl4'
_cell_volume   187.96103752
_cell_formula_units_Z   4
loop_
 _symmetry_equiv_pos_site_id
 _symmetry_equiv_pos_as_xyz
  1  'x, y, z'
loop_
 _atom_site_type_symbol
 _atom_site_label
 _atom_site_symmetry_multiplicity
 _atom_site_fract_x
 _atom_site_fract_y
 _atom_site_fract_z
 _atom_site_occupancy
  Na  Na0  1  0.65012045  0.43221729  0.57634787  1.0
  Na  Na1  1  0.93313930  0.04914599  0.50136655  1.0
  Na  Na2  1  0.70593687  0.52214729  0.05910232  1.0
  Na  Na3  1  0.94953375  0.27801644  0.54171455  1.0
  Cl  Cl4  1  0.94191119  0.80827757  0.05667786  1.0
  Cl  Cl5  1  0.38146633  0.60392883  0.16596294  1.0
  Cl  Cl6  1  0.52099227  0.55451323  0.55088596  1.0
  Cl  Cl7  1  0.07399507  0.63798159  0.41502363  1.0
