# generated using pymatgen
data_NaCl
_symmetry_space_group_name_H-M   'P 1'
_cell_length_a   4.81569901
_cell_length_b   4.81569901
_cell_length_c   9.42039835
_cell_angle_alpha   90.00000000
_cell_angle_beta   90.00000000
_cell_angle_gamma   90.00000000
_symmetry_Int_Tables_number   1
_chemical_formula_structural   NaCl
_chemical_formula_sum   'Na4 Cl4'
_cell_volume   218.46805263
_cell_formula_units_Z   4
loop_
 _symmetry_equiv_pos_site_id
 _symmetry_equiv_pos_as_xyz
  1  'x, y, z'
loop_
 _atom_site_type_symbol
 _atom_site_label
 _atom_site_symmetry_multiplicity
 _atom_site_fract_x
 _atom_site_fract_y
 _atom_site_fract_z
 _atom_site_occupancy
  Na  Na0  1  0.00000000  0.50000000  0.71138132  1.0
  Na  Na1  1  0.50000000  0.00000000  0.87744971  1.0
  Na  Na2  1  0.00000000  0.50000000  0.39611153  1.0
  Na  Na3  1  0.50000000  0.00000000  0.26857682  1.0
  Cl  Cl4  1  0.01911072  0.03562418  0.10521881  1.0
  Cl  Cl5  1  0.98205380  0.81768999  0.69506250  1.0
  Cl  Cl6  1  0.95243138  0.42383081  0.99925753  1.0
  Cl  Cl7  1  0.99949820  0.20654338  0.07388440  1.0
