# generated using pymatgen
data_NaCl
_symmetry_space_group_name_H-M   'P 1'
_cell_length_a   5.97078851
_cell_length_b   7.96459642
_cell_length_c   5.09874256
_cell_angle_alpha   90.00000000
_cell_angle_beta   90.00000000
_cell_angle_gamma   90.00000000
_symmetry_Int_Tables_number   1
_chemical_formula_structural   NaCl
_chemical_formula_sum   'Na4 Cl4'
_cell_volume   242.47029858
_cell_formula_units_Z   4
loop_
 _symmetry_equiv_pos_site_id
 _symmetry_equiv_pos_as_xyz
  1  'x, y, z'
loop_
 _atom_site_type_symbol
 _atom_site_label
 _atom_site_symmetry_multiplicity
 _atom_site_fract_x
 _atom_site_fract_y
 _atom_site_fract_z
 _atom_site_occupancy
  Na  Na0  1  0.54116472  0.53798060  0.45468044  1.0
  Na  Na1  1  0.91295554  0.14757042  0.97041165  1.0
  Na  Na2  1  0.02384188  0.87618788  0.50041291  1.0
  Na  Na3  1  0.51818583  0.03781121  0.38380157  1.0
  Cl  Cl4  1  0.00000000  0.82812529  0.05051188  1.0
  Cl  Cl5  1  0.50000000  0.81127806  0.16978537  1.0
  Cl  Cl6  1  0.00000000  0.26241882  0.62118290  1.0
  Cl  Cl7  1  0.50000000  0.22038080  0.88964668  1.0
