# generated using pymatgen
data_NaCl
_symmetry_space_group_name_H-M   'P 1'
_cell_length_a   6.16230921
_cell_length_b   15.81183946
_cell_length_c   7.54958972
_cell_angle_alpha   90.00000000
_cell_angle_beta   32.39838160
_cell_angle_gamma   90.00000000
_symmetry_Int_Tables_number   1
_chemical_formula_structural   NaCl
_chemical_formula_sum   'Na4 Cl4'
_cell_volume   394.14346485
_cell_formula_units_Z   4
loop_
 _symmetry_equiv_pos_site_id
 _symmetry_equiv_pos_as_xyz
  1  'x, y, z'
loop_
 _atom_site_type_symbol
 _atom_site_label
 _atom_site_symmetry_multiplicity
 _atom_site_fract_x
 _atom_site_fract_y
 _atom_site_fract_z
 _atom_site_occupancy
  Na  Na0  1  0.46601463  0.56651665  0.27832059  1.0
  Na  Na1  1  0.54536204  0.28211363  0.49930213  1.0
  Na  Na2  1  0.67869291  0.00103564  0.33671297  1.0
  Na  Na3  1  0.91739177  0.41501487  0.70088726  1.0
  Cl  Cl4  1  0.18367319  0.54302470  0.02100765  1.0
  Cl  Cl5  1  0.04070300  0.82744472  0.25105423  1.0
  Cl  Cl6  1  0.01327813  0.50047450  0.94282572  1.0
  Cl  Cl7  1  0.81744043  0.54124864  0.69204579  1.0
