# generated using pymatgen
data_NaCl
_symmetry_space_group_name_H-M   'P 1'
_cell_length_a   6.77112000
_cell_length_b   6.77112000
_cell_length_c   4.05584864
_cell_angle_alpha   90.00000000
_cell_angle_beta   90.00000000
_cell_angle_gamma   90.00000000
_symmetry_Int_Tables_number   1
_chemical_formula_structural   NaCl
_chemical_formula_sum   'Na4 Cl4'
_cell_volume   185.95281635
_cell_formula_units_Z   4
loop_
 _symmetry_equiv_pos_site_id
 _symmetry_equiv_pos_as_xyz
  1  'x, y, z'
loop_
 _atom_site_type_symbol
 _atom_site_label
 _atom_site_symmetry_multiplicity
 _atom_site_fract_x
 _atom_site_fract_y
 _atom_site_fract_z
 _atom_site_occupancy
  Na  Na0  1  0.55820490  0.55820490  0.00000000  1.0
  Na  Na1  1  0.51957979  0.51957979  0.50000000  1.0
  Na  Na2  1  0.07954161  0.92045839  0.25000000  1.0
  Na  Na3  1  0.05148226  0.94851774  0.75000000  1.0
  Cl  Cl4  1  0.14531694  0.14531694  0.00000000  1.0
  Cl  Cl5  1  0.89566420  0.89566420  0.50000000  1.0
  Cl  Cl6  1  0.88230176  0.11769824  0.25000000  1.0
  Cl  Cl7  1  0.91386085  0.08613915  0.75000000  1.0
