# generated using pymatgen
data_NaCl
_symmetry_space_group_name_H-M   'P 1'
_cell_length_a   3.57285021
_cell_length_b   9.19843122
_cell_length_c   4.89310194
_cell_angle_alpha   90.00000000
_cell_angle_beta   90.00000000
_cell_angle_gamma   90.00000000
_symmetry_Int_Tables_number   1
_chemical_formula_structural   NaCl
_chemical_formula_sum   'Na4 Cl4'
_cell_volume   160.80992079
_cell_formula_units_Z   4
loop_
 _symmetry_equiv_pos_site_id
 _symmetry_equiv_pos_as_xyz
  1  'x, y, z'
loop_
 _atom_site_type_symbol
 _atom_site_label
 _atom_site_symmetry_multiplicity
 _atom_site_fract_x
 _atom_site_fract_y
 _atom_site_fract_z
 _atom_site_occupancy
  Na  Na0  1  0.19270878  0.25000000  0.00000000  1.0
  Na  Na1  1  0.52012070  0.75000000  0.50000000  1.0
  Na  Na2  1  0.72089989  0.75000000  0.00000000  1.0
  Na  Na3  1  0.55659445  0.25000000  0.50000000  1.0
  Cl  Cl4  1  0.88538983  0.16824439  0.25000000  1.0
  Cl  Cl5  1  0.99970835  0.86935944  0.75000000  1.0
  Cl  Cl6  1  0.22172699  0.71265015  0.25000000  1.0
  Cl  Cl7  1  0.56247727  0.52336370  0.75000000  1.0
