# generated using pymatgen
data_NaCl
_symmetry_space_group_name_H-M   'P 1'
_cell_length_a   4.78798976
_cell_length_b   4.78798976
_cell_length_c   7.89582086
_cell_angle_alpha   90.00000000
_cell_angle_beta   90.00000000
_cell_angle_gamma   90.00000000
_symmetry_Int_Tables_number   1
_chemical_formula_structural   NaCl
_chemical_formula_sum   'Na4 Cl4'
_cell_volume   181.01047680
_cell_formula_units_Z   4
loop_
 _symmetry_equiv_pos_site_id
 _symmetry_equiv_pos_as_xyz
  1  'x, y, z'
loop_
 _atom_site_type_symbol
 _atom_site_label
 _atom_site_symmetry_multiplicity
 _atom_site_fract_x
 _atom_site_fract_y
 _atom_site_fract_z
 _atom_site_occupancy
  Na  Na0  1  0.00000000  0.50000000  0.56213531  1.0
  Na  Na1  1  0.00000000  0.50000000  0.25123023  1.0
  Na  Na2  1  0.50000000  0.00000000  0.76417009  1.0
  Na  Na3  1  0.50000000  0.00000000  0.25740954  1.0
  Cl  Cl4  1  0.13240474  0.13240474  0.07190998  1.0
  Cl  Cl5  1  0.85077133  0.85077133  0.58826017  1.0
  Cl  Cl6  1  0.04791854  0.95208146  0.45092696  1.0
  Cl  Cl7  1  0.81659966  0.18340034  0.27288714  1.0
