# generated using pymatgen
data_NaCl
_symmetry_space_group_name_H-M   'P 1'
_cell_length_a   5.38364895
_cell_length_b   5.38364895
_cell_length_c   10.53993129
_cell_angle_alpha   90.00000000
_cell_angle_beta   90.00000000
_cell_angle_gamma   90.00000000
_symmetry_Int_Tables_number   1
_chemical_formula_structural   NaCl
_chemical_formula_sum   'Na4 Cl4'
_cell_volume   305.48595375
_cell_formula_units_Z   4
loop_
 _symmetry_equiv_pos_site_id
 _symmetry_equiv_pos_as_xyz
  1  'x, y, z'
loop_
 _atom_site_type_symbol
 _atom_site_label
 _atom_site_symmetry_multiplicity
 _atom_site_fract_x
 _atom_site_fract_y
 _atom_site_fract_z
 _atom_site_occupancy
  Na  Na0  1  0.52710031  0.00000000  0.34809563  1.0
  Na  Na1  1  0.43678115  0.00000000  0.88546824  1.0
  Na  Na2  1  0.00000000  0.28018588  0.31494002  1.0
  Na  Na3  1  0.00000000  0.62871833  0.24341211  1.0
  Cl  Cl4  1  0.09628127  0.00000000  0.15092091  1.0
  Cl  Cl5  1  0.96414096  0.00000000  0.74241299  1.0
  Cl  Cl6  1  0.00000000  0.56377724  0.91506727  1.0
  Cl  Cl7  1  0.00000000  0.17610234  0.03398678  1.0
