# generated using pymatgen
data_NaCl
_symmetry_space_group_name_H-M   'P 1'
_cell_length_a   3.09358486
_cell_length_b   14.67401022
_cell_length_c   10.70033414
_cell_angle_alpha   90.00000000
_cell_angle_beta   44.27051137
_cell_angle_gamma   90.00000000
_symmetry_Int_Tables_number   1
_chemical_formula_structural   NaCl
_chemical_formula_sum   'Na4 Cl4'
_cell_volume   339.07264872
_cell_formula_units_Z   4
loop_
 _symmetry_equiv_pos_site_id
 _symmetry_equiv_pos_as_xyz
  1  'x, y, z'
loop_
 _atom_site_type_symbol
 _atom_site_label
 _atom_site_symmetry_multiplicity
 _atom_site_fract_x
 _atom_site_fract_y
 _atom_site_fract_z
 _atom_site_occupancy
  Na  Na0  1  0.38268175  0.68538898  0.27896240  1.0
  Na  Na1  1  0.36966818  0.35116547  0.03371254  1.0
  Na  Na2  1  0.21264988  0.53459508  0.41858899  1.0
  Na  Na3  1  0.60900220  0.53677419  0.72686913  1.0
  Cl  Cl4  1  0.13007162  0.00117485  0.14995534  1.0
  Cl  Cl5  1  0.92423476  0.68246015  0.23835320  1.0
  Cl  Cl6  1  0.47739407  0.14464541  0.20564614  1.0
  Cl  Cl7  1  0.61090756  0.50177180  0.40491819  1.0
