# generated using pymatgen
data_NaCl
_symmetry_space_group_name_H-M   'P 1'
_cell_length_a   6.89999983
_cell_length_b   6.89999983
_cell_length_c   6.89999983
_cell_angle_alpha   90.00000000
_cell_angle_beta   90.00000000
_cell_angle_gamma   90.00000000
_symmetry_Int_Tables_number   1
_chemical_formula_structural   NaCl
_chemical_formula_sum   'Na4 Cl4'
_cell_volume   328.50897572
_cell_formula_units_Z   4
loop_
 _symmetry_equiv_pos_site_id
 _symmetry_equiv_pos_as_xyz
  1  'x, y, z'
loop_
 _atom_site_type_symbol
 _atom_site_label
 _atom_site_symmetry_multiplicity
 _atom_site_fract_x
 _atom_site_fract_y
 _atom_site_fract_z
 _atom_site_occupancy
  Na  Na0  1  0.46453469  0.46453469  0.46453469  1.0
  Na  Na1  1  0.98076921  0.48076921  0.01923079  1.0
  Na  Na2  1  0.84691037  0.65308963  0.34691037  1.0
  Na  Na3  1  0.92837493  0.07162507  0.57162507  1.0
  Cl  Cl4  1  0.16216584  0.16216584  0.16216584  1.0
  Cl  Cl5  1  0.49992518  0.99992518  0.50007482  1.0
  Cl  Cl6  1  0.50115384  0.99884616  0.00115384  1.0
  Cl  Cl7  1  0.32729859  0.67270141  0.17270141  1.0
