# generated using pymatgen
data_NaCl
_symmetry_space_group_name_H-M   'P 1'
_cell_length_a   5.68411995
_cell_length_b   14.48182515
_cell_length_c   3.94652378
_cell_angle_alpha   90.00000000
_cell_angle_beta   58.36305027
_cell_angle_gamma   90.00000000
_symmetry_Int_Tables_number   1
_chemical_formula_structural   NaCl
_chemical_formula_sum   'Na4 Cl4'
_cell_volume   276.58537464
_cell_formula_units_Z   4
loop_
 _symmetry_equiv_pos_site_id
 _symmetry_equiv_pos_as_xyz
  1  'x, y, z'
loop_
 _atom_site_type_symbol
 _atom_site_label
 _atom_site_symmetry_multiplicity
 _atom_site_fract_x
 _atom_site_fract_y
 _atom_site_fract_z
 _atom_site_occupancy
  Na  Na0  1  0.64794165  0.38672562  0.60552599  1.0
  Na  Na1  1  0.63586160  0.27907060  0.85463915  1.0
  Na  Na2  1  0.81598141  0.61426700  0.49177634  1.0
  Na  Na3  1  0.94966857  0.29306500  0.00897732  1.0
  Cl  Cl4  1  0.95493056  0.07302938  0.01632489  1.0
  Cl  Cl5  1  0.07838161  0.37622036  0.79221647  1.0
  Cl  Cl6  1  0.10586877  0.50029547  0.92708366  1.0
  Cl  Cl7  1  0.83913753  0.79547498  0.64689562  1.0
