# generated using pymatgen
data_NaCl
_symmetry_space_group_name_H-M   'P 1'
_cell_length_a   3.38239969
_cell_length_b   3.38239969
_cell_length_c   10.03534243
_cell_angle_alpha   90.00000000
_cell_angle_beta   90.00000000
_cell_angle_gamma   90.00000000
_symmetry_Int_Tables_number   1
_chemical_formula_structural   NaCl
_chemical_formula_sum   'Na4 Cl4'
_cell_volume   114.81061621
_cell_formula_units_Z   4
loop_
 _symmetry_equiv_pos_site_id
 _symmetry_equiv_pos_as_xyz
  1  'x, y, z'
loop_
 _atom_site_type_symbol
 _atom_site_label
 _atom_site_symmetry_multiplicity
 _atom_site_fract_x
 _atom_site_fract_y
 _atom_site_fract_z
 _atom_site_occupancy
  Na  Na0  1  0.66414519  0.40804618  0.66157977  1.0
  Na  Na1  1  0.39135631  0.10233379  0.91891175  1.0
  Na  Na2  1  0.32556031  0.73021225  0.82538140  1.0
  Na  Na3  1  0.59717352  0.43984818  0.10460886  1.0
  Cl  Cl4  1  0.02813088  0.62435771  0.20890717  1.0
  Cl  Cl5  1  0.98089175  0.98232492  0.35704943  1.0
  Cl  Cl6  1  0.50775949  0.56942966  0.38860853  1.0
  Cl  Cl7  1  0.83672247  0.91063598  0.70679074  1.0
