# generated using pymatgen
data_NaCl
_symmetry_space_group_name_H-M   'P 1'
_cell_length_a   4.82675423
_cell_length_b   4.57522152
_cell_length_c   12.18856630
_cell_angle_alpha   90.00000000
_cell_angle_beta   90.00000000
_cell_angle_gamma   90.00000000
_symmetry_Int_Tables_number   1
_chemical_formula_structural   NaCl
_chemical_formula_sum   'Na4 Cl4'
_cell_volume   269.16583609
_cell_formula_units_Z   4
loop_
 _symmetry_equiv_pos_site_id
 _symmetry_equiv_pos_as_xyz
  1  'x, y, z'
loop_
 _atom_site_type_symbol
 _atom_site_label
 _atom_site_symmetry_multiplicity
 _atom_site_fract_x
 _atom_site_fract_y
 _atom_site_fract_z
 _atom_site_occupancy
  Na  Na0  1  0.44636981  0.75794596  0.39551663  1.0
  Na  Na1  1  0.43228775  0.26319583  0.97689906  1.0
  Na  Na2  1  0.63730641  0.92729684  0.01776869  1.0
  Na  Na3  1  0.18431276  0.03639134  0.79374697  1.0
  Cl  Cl4  1  0.15531045  0.13103975  0.26196390  1.0
  Cl  Cl5  1  0.90063012  0.80180713  0.13007643  1.0
  Cl  Cl6  1  0.97134550  0.79149060  0.94934905  1.0
  Cl  Cl7  1  0.20180665  0.99950121  0.08491502  1.0
