# generated using pymatgen
data_NaCl
_symmetry_space_group_name_H-M   'P 1'
_cell_length_a   7.84112522
_cell_length_b   6.78825350
_cell_length_c   6.98109828
_cell_angle_alpha   90.00000000
_cell_angle_beta   52.90465430
_cell_angle_gamma   90.00000000
_symmetry_Int_Tables_number   1
_chemical_formula_structural   NaCl
_chemical_formula_sum   'Na4 Cl4'
_cell_volume   296.38980920
_cell_formula_units_Z   4
loop_
 _symmetry_equiv_pos_site_id
 _symmetry_equiv_pos_as_xyz
  1  'x, y, z'
loop_
 _atom_site_type_symbol
 _atom_site_label
 _atom_site_symmetry_multiplicity
 _atom_site_fract_x
 _atom_site_fract_y
 _atom_site_fract_z
 _atom_site_occupancy
  Na  Na0  1  0.00000000  0.00000000  0.50000000  1.0
  Na  Na1  1  0.00000000  0.50000000  0.00000000  1.0
  Na  Na2  1  0.50000000  0.00000000  0.50000000  1.0
  Na  Na3  1  0.50000000  0.50000000  0.00000000  1.0
  Cl  Cl4  1  0.88831818  0.67255427  0.21281471  1.0
  Cl  Cl5  1  0.97938734  0.84884957  0.70422972  1.0
  Cl  Cl6  1  0.43128137  0.75845804  0.99869475  1.0
  Cl  Cl7  1  0.61420461  0.61051174  0.71245562  1.0
