# generated using pymatgen
data_NaCl
_symmetry_space_group_name_H-M   'P 1'
_cell_length_a   8.02472923
_cell_length_b   6.64313428
_cell_length_c   4.79519310
_cell_angle_alpha   90.00000000
_cell_angle_beta   90.00000000
_cell_angle_gamma   90.00000000
_symmetry_Int_Tables_number   1
_chemical_formula_structural   NaCl
_chemical_formula_sum   'Na4 Cl4'
_cell_volume   255.62864568
_cell_formula_units_Z   4
loop_
 _symmetry_equiv_pos_site_id
 _symmetry_equiv_pos_as_xyz
  1  'x, y, z'
loop_
 _atom_site_type_symbol
 _atom_site_label
 _atom_site_symmetry_multiplicity
 _atom_site_fract_x
 _atom_site_fract_y
 _atom_site_fract_z
 _atom_site_occupancy
  Na  Na0  1  0.00000000  0.50000000  0.45408994  1.0
  Na  Na1  1  0.50000000  0.50000000  0.43291282  1.0
  Na  Na2  1  0.25000000  0.00010159  0.54349677  1.0
  Na  Na3  1  0.75000000  0.79514928  0.44851582  1.0
  Cl  Cl4  1  0.67094801  0.67045148  0.09517680  1.0
  Cl  Cl5  1  0.40579681  0.73191719  0.51904496  1.0
  Cl  Cl6  1  0.12768439  0.86412548  0.79877731  1.0
  Cl  Cl7  1  0.94346387  0.84661266  0.02781500  1.0
