# generated using pymatgen
data_NaCl
_symmetry_space_group_name_H-M   'P 1'
_cell_length_a   5.72954100
_cell_length_b   5.72954100
_cell_length_c   5.14345685
_cell_angle_alpha   90.00000000
_cell_angle_beta   90.00000000
_cell_angle_gamma   90.00000000
_symmetry_Int_Tables_number   1
_chemical_formula_structural   NaCl
_chemical_formula_sum   'Na4 Cl4'
_cell_volume   168.84755019
_cell_formula_units_Z   4
loop_
 _symmetry_equiv_pos_site_id
 _symmetry_equiv_pos_as_xyz
  1  'x, y, z'
loop_
 _atom_site_type_symbol
 _atom_site_label
 _atom_site_symmetry_multiplicity
 _atom_site_fract_x
 _atom_site_fract_y
 _atom_site_fract_z
 _atom_site_occupancy
  Na  Na0  1  0.58674878  0.62846737  0.65419781  1.0
  Na  Na1  1  0.42283117  0.33384946  0.94544191  1.0
  Na  Na2  1  0.63354938  0.19701734  0.79062200  1.0
  Na  Na3  1  0.18479283  0.65869129  0.63986025  1.0
  Cl  Cl4  1  0.02644584  0.83354925  0.05025313  1.0
  Cl  Cl5  1  0.94255316  0.74986665  0.27430920  1.0
  Cl  Cl6  1  0.68840867  0.54813625  0.36112844  1.0
  Cl  Cl7  1  0.90042060  0.67081207  0.55707693  1.0
