# generated using pymatgen
data_NaCl
_symmetry_space_group_name_H-M   'P 1'
_cell_length_a   6.03565178
_cell_length_b   6.03565178
_cell_length_c   8.72140041
_cell_angle_alpha   90.00000000
_cell_angle_beta   90.00000000
_cell_angle_gamma   90.00000000
_symmetry_Int_Tables_number   1
_chemical_formula_structural   NaCl
_chemical_formula_sum   'Na4 Cl4'
_cell_volume   317.71270148
_cell_formula_units_Z   4
loop_
 _symmetry_equiv_pos_site_id
 _symmetry_equiv_pos_as_xyz
  1  'x, y, z'
loop_
 _atom_site_type_symbol
 _atom_site_label
 _atom_site_symmetry_multiplicity
 _atom_site_fract_x
 _atom_site_fract_y
 _atom_site_fract_z
 _atom_site_occupancy
  Na  Na0  1  0.34878703  0.54777554  0.74839615  1.0
  Na  Na1  1  0.48265163  0.08631559  0.97808336  1.0
  Na  Na2  1  0.63420352  0.33249197  0.43088672  1.0
  Na  Na3  1  0.11578780  0.72664639  0.08477738  1.0
  Cl  Cl4  1  0.51660057  0.71253842  0.05577179  1.0
  Cl  Cl5  1  0.91810031  0.81610923  0.96854455  1.0
  Cl  Cl6  1  0.80021635  0.74751399  0.17252436  1.0
  Cl  Cl7  1  0.64655710  0.57515228  0.19273239  1.0
