# generated using pymatgen
data_NaCl
_symmetry_space_group_name_H-M   'P 1'
_cell_length_a   5.08452260
_cell_length_b   9.38750631
_cell_length_c   7.70696898
_cell_angle_alpha   90.00000000
_cell_angle_beta   90.00000000
_cell_angle_gamma   90.00000000
_symmetry_Int_Tables_number   1
_chemical_formula_structural   NaCl
_chemical_formula_sum   'Na4 Cl4'
_cell_volume   367.86124415
_cell_formula_units_Z   4
loop_
 _symmetry_equiv_pos_site_id
 _symmetry_equiv_pos_as_xyz
  1  'x, y, z'
loop_
 _atom_site_type_symbol
 _atom_site_label
 _atom_site_symmetry_multiplicity
 _atom_site_fract_x
 _atom_site_fract_y
 _atom_site_fract_z
 _atom_site_occupancy
  Na  Na0  1  0.00000000  0.00000000  0.84375146  1
  Na  Na1  1  0.00000000  0.50000000  1.04222019  1
  Na  Na2  1  0.50000000  0.00000000  0.57156764  1
  Na  Na3  1  0.50000000  0.50000000  0.78710633  1
  Cl  Cl4  1  0.00000000  0.00000000  0.14705201  1
  Cl  Cl5  1  0.00000000  0.50000000  0.91392477  1
  Cl  Cl6  1  0.50000000  0.00000000  0.96813079  1
  Cl  Cl7  1  0.50000000  0.50000000  0.84607797  1
