# generated using pymatgen
data_NaCl
_symmetry_space_group_name_H-M   'P 1'
_cell_length_a   5.68468809
_cell_length_b   15.24676507
_cell_length_c   10.80834298
_cell_angle_alpha   90.00000000
_cell_angle_beta   90.00000000
_cell_angle_gamma   90.00000000
_symmetry_Int_Tables_number   1
_chemical_formula_structural   NaCl
_chemical_formula_sum   'Na4 Cl4'
_cell_volume   936.79263348
_cell_formula_units_Z   4
loop_
 _symmetry_equiv_pos_site_id
 _symmetry_equiv_pos_as_xyz
  1  'x, y, z'
loop_
 _atom_site_type_symbol
 _atom_site_label
 _atom_site_symmetry_multiplicity
 _atom_site_fract_x
 _atom_site_fract_y
 _atom_site_fract_z
 _atom_site_occupancy
  Na  Na0  1  0.00000000  0.00000000  0.15555386  1
  Na  Na1  1  0.00000000  0.50000000  1.11870465  1
  Na  Na2  1  0.50000000  0.00000000  0.65676864  1
  Na  Na3  1  0.50000000  0.50000000  0.19789093  1
  Cl  Cl4  1  0.00000000  0.00000000  0.94223397  1
  Cl  Cl5  1  0.00000000  0.50000000  0.85272187  1
  Cl  Cl6  1  0.50000000  0.00000000  1.37977131  1
  Cl  Cl7  1  0.50000000  0.50000000  0.38897572  1
