# generated using pymatgen
data_NaCl
_symmetry_space_group_name_H-M   'P 1'
_cell_length_a   14.30730565
_cell_length_b   14.30730565
_cell_length_c   8.93120493
_cell_angle_alpha   90.00000000
_cell_angle_beta   90.00000000
_cell_angle_gamma   90.00000000
_symmetry_Int_Tables_number   1
_chemical_formula_structural   NaCl
_chemical_formula_sum   'Na4 Cl4'
_cell_volume   1828.20867347
_cell_formula_units_Z   4
loop_
 _symmetry_equiv_pos_site_id
 _symmetry_equiv_pos_as_xyz
  1  'x, y, z'
loop_
 _atom_site_type_symbol
 _atom_site_label
 _atom_site_symmetry_multiplicity
 _atom_site_fract_x
 _atom_site_fract_y
 _atom_site_fract_z
 _atom_site_occupancy
  Na  Na0  1  0.75000000  0.25000000  0.95098263  1
  Na  Na1  1  0.25000000  0.75000000  1.22917342  1
  Na  Na2  1  0.75000000  0.25000000  0.31961957  1
  Na  Na3  1  0.25000000  0.75000000  -0.15189975  1
  Cl  Cl4  1  0.75000000  0.25000000  0.63153439  1
  Cl  Cl5  1  0.25000000  0.75000000  1.11097603  1
  Cl  Cl6  1  0.75000000  0.25000000  0.38563907  1
  Cl  Cl7  1  0.25000000  0.75000000  -0.62911557  1
