# generated using pymatgen
data_NaCl
_symmetry_space_group_name_H-M   'P 1'
_cell_length_a   5.65298411
_cell_length_b   5.65298411
_cell_length_c   5.65298411
_cell_angle_alpha   90.00000000
_cell_angle_beta   90.00000000
_cell_angle_gamma   90.00000000
_symmetry_Int_Tables_number   1
_chemical_formula_structural   NaCl
_chemical_formula_sum   'Na4 Cl4'
_cell_volume   180.64805672
_cell_formula_units_Z   4
loop_
 _symmetry_equiv_pos_site_id
 _symmetry_equiv_pos_as_xyz
  1  'x, y, z'
loop_
 _atom_site_type_symbol
 _atom_site_label
 _atom_site_symmetry_multiplicity
 _atom_site_fract_x
 _atom_site_fract_y
 _atom_site_fract_z
 _atom_site_occupancy
  Na  Na0  1  0.41382593  0.41382593  0.41382593  1.0
  Na  Na1  1  0.23516701  0.73516701  0.76483299  1.0
  Na  Na2  1  0.96423616  0.53576384  0.46423616  1.0
  Na  Na3  1  0.55005780  0.44994220  0.94994220  1.0
  Cl  Cl4  1  0.86014646  0.86014646  0.86014646  1.0
  Cl  Cl5  1  0.48492947  0.98492947  0.51507053  1.0
  Cl  Cl6  1  0.23486510  0.26513490  0.73486510  1.0
  Cl  Cl7  1  0.27786194  0.72213806  0.22213806  1.0
