# generated using pymatgen
data_NaCl
_symmetry_space_group_name_H-M   'P 1'
_cell_length_a   5.11436569
_cell_length_b   5.11436569
_cell_length_c   11.74886162
_cell_angle_alpha   90.00000000
_cell_angle_beta   90.00000000
_cell_angle_gamma   90.00000000
_symmetry_Int_Tables_number   1
_chemical_formula_structural   NaCl
_chemical_formula_sum   'Na4 Cl4'
_cell_volume   307.31187652
_cell_formula_units_Z   4
loop_
 _symmetry_equiv_pos_site_id
 _symmetry_equiv_pos_as_xyz
  1  'x, y, z'
loop_
 _atom_site_type_symbol
 _atom_site_label
 _atom_site_symmetry_multiplicity
 _atom_site_fract_x
 _atom_site_fract_y
 _atom_site_fract_z
 _atom_site_occupancy
  Na  Na0  1  0.42096744  0.42096744  0.63989075  1.0
  Na  Na1  1  0.66392677  0.66392677  0.84506906  1.0
  Na  Na2  1  0.81420752  0.18579248  0.53629078  1.0
  Na  Na3  1  0.26777679  0.73222321  0.37043496  1.0
  Cl  Cl4  1  0.08537753  0.00000000  0.16818167  1.0
  Cl  Cl5  1  0.91809993  0.00000000  0.02281995  1.0
  Cl  Cl6  1  0.00000000  0.71312355  0.57408168  1.0
  Cl  Cl7  1  0.00000000  0.63791285  0.47349933  1.0
