# generated using pymatgen
data_NaCl
_symmetry_space_group_name_H-M   'P 1'
_cell_length_a   5.72345918
_cell_length_b   5.72345918
_cell_length_c   5.72345918
_cell_angle_alpha   90.00000000
_cell_angle_beta   90.00000000
_cell_angle_gamma   90.00000000
_symmetry_Int_Tables_number   1
_chemical_formula_structural   NaCl
_chemical_formula_sum   'Na4 Cl4'
_cell_volume   187.48898988
_cell_formula_units_Z   4
loop_
 _symmetry_equiv_pos_site_id
 _symmetry_equiv_pos_as_xyz
  1  'x, y, z'
loop_
 _atom_site_type_symbol
 _atom_site_label
 _atom_site_symmetry_multiplicity
 _atom_site_fract_x
 _atom_site_fract_y
 _atom_site_fract_z
 _atom_site_occupancy
  Na  Na0  1  0.29482010  0.29482010  0.29482010  1.0
  Na  Na1  1  0.77695209  0.77695209  0.22304791  1.0
  Na  Na2  1  0.36508182  0.63491818  0.36508182  1.0
  Na  Na3  1  0.14323696  0.85676304  0.85676304  1.0
  Cl  Cl4  1  0.99500424  0.99500424  0.99500424  1.0
  Cl  Cl5  1  0.89364934  0.89364934  0.10635066  1.0
  Cl  Cl6  1  0.21479711  0.78520289  0.21479711  1.0
  Cl  Cl7  1  0.72686541  0.27313459  0.27313459  1.0
