# generated using pymatgen
data_NaCl
_symmetry_space_group_name_H-M   'P 1'
_cell_length_a   6.85191141
_cell_length_b   6.85191141
_cell_length_c   6.85191141
_cell_angle_alpha   90.00000000
_cell_angle_beta   90.00000000
_cell_angle_gamma   90.00000000
_symmetry_Int_Tables_number   1
_chemical_formula_structural   NaCl
_chemical_formula_sum   'Na4 Cl4'
_cell_volume   321.68826449
_cell_formula_units_Z   4
loop_
 _symmetry_equiv_pos_site_id
 _symmetry_equiv_pos_as_xyz
  1  'x, y, z'
loop_
 _atom_site_type_symbol
 _atom_site_label
 _atom_site_symmetry_multiplicity
 _atom_site_fract_x
 _atom_site_fract_y
 _atom_site_fract_z
 _atom_site_occupancy
  Na  Na0  1  0.47258135  0.47258135  0.47258135  1.0
  Na  Na1  1  0.15780298  0.65780298  0.84219702  1.0
  Na  Na2  1  0.90583156  0.59416844  0.40583156  1.0
  Na  Na3  1  0.60457031  0.39542969  0.89542969  1.0
  Cl  Cl4  1  0.83516269  0.83516269  0.83516269  1.0
  Cl  Cl5  1  0.30195069  0.80195069  0.69804931  1.0
  Cl  Cl6  1  0.20066179  0.29933821  0.70066179  1.0
  Cl  Cl7  1  0.08166671  0.91833329  0.41833329  1.0
