# generated using pymatgen
data_NaCl
_symmetry_space_group_name_H-M   'P 1'
_cell_length_a   2.06847048
_cell_length_b   2.06847048
_cell_length_c   18.89643327
_cell_angle_alpha   90.00000000
_cell_angle_beta   90.00000000
_cell_angle_gamma   90.00000000
_symmetry_Int_Tables_number   1
_chemical_formula_structural   NaCl
_chemical_formula_sum   'Na4 Cl4'
_cell_volume   80.84971489
_cell_formula_units_Z   4
loop_
 _symmetry_equiv_pos_site_id
 _symmetry_equiv_pos_as_xyz
  1  'x, y, z'
loop_
 _atom_site_type_symbol
 _atom_site_label
 _atom_site_symmetry_multiplicity
 _atom_site_fract_x
 _atom_site_fract_y
 _atom_site_fract_z
 _atom_site_occupancy
  Na  Na0  1  0.87796078  0.54429432  0.56408481  1.0
  Na  Na1  1  0.51499511  0.24296085  0.07381298  1.0
  Na  Na2  1  0.16788681  0.34146897  0.42574760  1.0
  Na  Na3  1  0.81903980  0.30051614  0.22367356  1.0
  Cl  Cl4  1  0.20699207  0.63287866  0.83674547  1.0
  Cl  Cl5  1  0.44242461  0.21457163  0.36564667  1.0
  Cl  Cl6  1  0.33548818  0.88259887  0.65082583  1.0
  Cl  Cl7  1  0.05681391  0.83583750  0.30958182  1.0
