# generated using pymatgen
data_NaCl
_symmetry_space_group_name_H-M   'P 1'
_cell_length_a   6.26055533
_cell_length_b   6.26055533
_cell_length_c   6.26055533
_cell_angle_alpha   90.00000000
_cell_angle_beta   90.00000000
_cell_angle_gamma   90.00000000
_symmetry_Int_Tables_number   1
_chemical_formula_structural   NaCl
_chemical_formula_sum   'Na4 Cl4'
_cell_volume   245.37966794
_cell_formula_units_Z   4
loop_
 _symmetry_equiv_pos_site_id
 _symmetry_equiv_pos_as_xyz
  1  'x, y, z'
loop_
 _atom_site_type_symbol
 _atom_site_label
 _atom_site_symmetry_multiplicity
 _atom_site_fract_x
 _atom_site_fract_y
 _atom_site_fract_z
 _atom_site_occupancy
  Na  Na0  1  0.41630025  0.41630025  0.41630025  1.0
  Na  Na1  1  0.11146770  0.61146770  0.88853230  1.0
  Na  Na2  1  0.79073986  0.70926014  0.29073986  1.0
  Na  Na3  1  0.52145204  0.47854796  0.97854796  1.0
  Cl  Cl4  1  0.06546522  0.06546522  0.06546522  1.0
  Cl  Cl5  1  0.37320795  0.87320795  0.62679205  1.0
  Cl  Cl6  1  0.14697909  0.35302091  0.64697909  1.0
  Cl  Cl7  1  0.12528601  0.87471399  0.37471399  1.0
