# generated using pymatgen
data_NaCl
_symmetry_space_group_name_H-M   'P 1'
_cell_length_a   4.16483522
_cell_length_b   4.16483522
_cell_length_c   11.60608212
_cell_angle_alpha   90.00000000
_cell_angle_beta   90.00000000
_cell_angle_gamma   90.00000000
_symmetry_Int_Tables_number   1
_chemical_formula_structural   NaCl
_chemical_formula_sum   'Na4 Cl4'
_cell_volume   201.31738751
_cell_formula_units_Z   4
loop_
 _symmetry_equiv_pos_site_id
 _symmetry_equiv_pos_as_xyz
  1  'x, y, z'
loop_
 _atom_site_type_symbol
 _atom_site_label
 _atom_site_symmetry_multiplicity
 _atom_site_fract_x
 _atom_site_fract_y
 _atom_site_fract_z
 _atom_site_occupancy
  Na  Na0  1  0.71537773  0.71537773  0.70796615  1.0
  Na  Na1  1  0.35574342  0.35574342  0.95861071  1.0
  Na  Na2  1  0.24466118  0.75533882  0.02376702  1.0
  Na  Na3  1  0.00376675  0.99623325  0.85652236  1.0
  Cl  Cl4  1  0.00103449  0.00103449  0.69512959  1.0
  Cl  Cl5  1  0.55788766  0.55788766  0.61555930  1.0
  Cl  Cl6  1  0.71116358  0.28883642  0.50023106  1.0
  Cl  Cl7  1  0.52189895  0.47810105  0.24539817  1.0
