# generated using pymatgen
data_NaCl
_symmetry_space_group_name_H-M   'P 1'
_cell_length_a   2.63369984
_cell_length_b   2.63369984
_cell_length_c   29.04216830
_cell_angle_alpha   90.00000000
_cell_angle_beta   90.00000000
_cell_angle_gamma   90.00000000
_symmetry_Int_Tables_number   1
_chemical_formula_structural   NaCl
_chemical_formula_sum   'Na4 Cl4'
_cell_volume   201.44736570
_cell_formula_units_Z   4
loop_
 _symmetry_equiv_pos_site_id
 _symmetry_equiv_pos_as_xyz
  1  'x, y, z'
loop_
 _atom_site_type_symbol
 _atom_site_label
 _atom_site_symmetry_multiplicity
 _atom_site_fract_x
 _atom_site_fract_y
 _atom_site_fract_z
 _atom_site_occupancy
  Na  Na0  1  0.49533349  0.38309065  0.15472709  1.0
  Na  Na1  1  0.83774375  0.33710706  0.96699855  1.0
  Na  Na2  1  0.18974398  0.04533836  0.82037651  1.0
  Na  Na3  1  0.89637103  0.87844818  0.69008274  1.0
  Cl  Cl4  1  0.00000000  0.00000000  0.13163949  1.0
  Cl  Cl5  1  0.00000000  0.00000000  0.49067090  1.0
  Cl  Cl6  1  0.00000000  0.00000000  0.35614142  1.0
  Cl  Cl7  1  0.00000000  0.00000000  0.92977689  1.0
