# generated using pymatgen
data_NaCl
_symmetry_space_group_name_H-M   'P 1'
_cell_length_a   3.39343944
_cell_length_b   16.06117984
_cell_length_c   4.74804712
_cell_angle_alpha   90.00000000
_cell_angle_beta   90.00000000
_cell_angle_gamma   90.00000000
_symmetry_Int_Tables_number   1
_chemical_formula_structural   NaCl
_chemical_formula_sum   'Na4 Cl4'
_cell_volume   258.78110821
_cell_formula_units_Z   4
loop_
 _symmetry_equiv_pos_site_id
 _symmetry_equiv_pos_as_xyz
  1  'x, y, z'
loop_
 _atom_site_type_symbol
 _atom_site_label
 _atom_site_symmetry_multiplicity
 _atom_site_fract_x
 _atom_site_fract_y
 _atom_site_fract_z
 _atom_site_occupancy
  Na  Na0  1  0.00000000  0.50986869  0.01763991  1.0
  Na  Na1  1  0.00000000  0.42648825  0.93057849  1.0
  Na  Na2  1  0.50000000  0.27734335  0.46015952  1.0
  Na  Na3  1  0.50000000  0.81614710  0.38622397  1.0
  Cl  Cl4  1  0.84835743  0.00000000  0.07867903  1.0
  Cl  Cl5  1  0.96443188  0.00000000  0.53063315  1.0
  Cl  Cl6  1  0.22919741  0.50000000  0.68934134  1.0
  Cl  Cl7  1  0.73814169  0.50000000  0.49979162  1.0
