# generated using pymatgen
data_NaCl
_symmetry_space_group_name_H-M   'P 1'
_cell_length_a   4.26447279
_cell_length_b   11.38727957
_cell_length_c   8.35489915
_cell_angle_alpha   90.00000000
_cell_angle_beta   90.00000000
_cell_angle_gamma   90.00000000
_symmetry_Int_Tables_number   1
_chemical_formula_structural   NaCl
_chemical_formula_sum   'Na4 Cl4'
_cell_volume   405.72011775
_cell_formula_units_Z   4
loop_
 _symmetry_equiv_pos_site_id
 _symmetry_equiv_pos_as_xyz
  1  'x, y, z'
loop_
 _atom_site_type_symbol
 _atom_site_label
 _atom_site_symmetry_multiplicity
 _atom_site_fract_x
 _atom_site_fract_y
 _atom_site_fract_z
 _atom_site_occupancy
  Na  Na0  1  0.00000000  0.24167361  0.25000000  1.0
  Na  Na1  1  0.00000000  0.46172354  0.75000000  1.0
  Na  Na2  1  0.50000000  0.45001482  0.25000000  1.0
  Na  Na3  1  0.50000000  0.67499941  0.75000000  1.0
  Cl  Cl4  1  0.97667201  0.00000000  0.00000000  1.0
  Cl  Cl5  1  0.94319554  0.00000000  0.50000000  1.0
  Cl  Cl6  1  0.42763013  0.50000000  0.00000000  1.0
  Cl  Cl7  1  0.00682699  0.50000000  0.50000000  1.0
