# generated using pymatgen
data_NaCl
_symmetry_space_group_name_H-M   'P 1'
_cell_length_a   6.21101947
_cell_length_b   6.21101947
_cell_length_c   9.00395062
_cell_angle_alpha   90.00000000
_cell_angle_beta   90.00000000
_cell_angle_gamma   90.00000000
_symmetry_Int_Tables_number   1
_chemical_formula_structural   NaCl
_chemical_formula_sum   'Na4 Cl4'
_cell_volume   347.34326784
_cell_formula_units_Z   4
loop_
 _symmetry_equiv_pos_site_id
 _symmetry_equiv_pos_as_xyz
  1  'x, y, z'
loop_
 _atom_site_type_symbol
 _atom_site_label
 _atom_site_symmetry_multiplicity
 _atom_site_fract_x
 _atom_site_fract_y
 _atom_site_fract_z
 _atom_site_occupancy
  Na  Na0  1  0.58013546  0.95160340  0.89361421  1.0
  Na  Na1  1  0.99776299  0.03838427  0.72049715  1.0
  Na  Na2  1  0.17161234  0.60941874  0.09683248  1.0
  Na  Na3  1  0.81402577  0.61902533  0.09393900  1.0
  Cl  Cl4  1  0.71666973  0.02235934  0.52006553  1.0
  Cl  Cl5  1  0.69944407  0.12691038  0.20343688  1.0
  Cl  Cl6  1  0.96259330  0.41332758  0.24858918  1.0
  Cl  Cl7  1  0.02805309  0.98182446  0.44804775  1.0
