# generated using pymatgen
data_NaCl
_symmetry_space_group_name_H-M   'P 1'
_cell_length_a   6.53346922
_cell_length_b   4.61713405
_cell_length_c   12.93474608
_cell_angle_alpha   129.63543064
_cell_angle_beta   50.23583262
_cell_angle_gamma   101.15017573
_symmetry_Int_Tables_number   1
_chemical_formula_structural   NaCl
_chemical_formula_sum   'Na4 Cl4'
_cell_volume   215.26521044
_cell_formula_units_Z   4
loop_
 _symmetry_equiv_pos_site_id
 _symmetry_equiv_pos_as_xyz
  1  'x, y, z'
loop_
 _atom_site_type_symbol
 _atom_site_label
 _atom_site_symmetry_multiplicity
 _atom_site_fract_x
 _atom_site_fract_y
 _atom_site_fract_z
 _atom_site_occupancy
  Na  Na0  1  0.00000000  0.00000000  0.00000000  1.0
  Na  Na1  1  0.00000000  0.00000000  0.50000000  1.0
  Na  Na2  1  0.00000000  0.50000000  0.00000000  1.0
  Na  Na3  1  0.00000000  0.50000000  0.50000000  1.0
  Cl  Cl4  1  0.50000000  0.00000000  0.50000000  1.0
  Cl  Cl5  1  0.50000000  0.50000000  0.50000000  1.0
  Cl  Cl6  1  0.37869004  0.05248789  0.99983545  1.0
  Cl  Cl7  1  0.90009288  0.83690428  0.61483391  1.0
