# generated using pymatgen
data_NaCl
_symmetry_space_group_name_H-M   'P 1'
_cell_length_a   3.86753983
_cell_length_b   5.78900365
_cell_length_c   12.07132461
_cell_angle_alpha   90.00000000
_cell_angle_beta   90.00000000
_cell_angle_gamma   90.00000000
_symmetry_Int_Tables_number   1
_chemical_formula_structural   NaCl
_chemical_formula_sum   'Na4 Cl4'
_cell_volume   270.26732742
_cell_formula_units_Z   4
loop_
 _symmetry_equiv_pos_site_id
 _symmetry_equiv_pos_as_xyz
  1  'x, y, z'
loop_
 _atom_site_type_symbol
 _atom_site_label
 _atom_site_symmetry_multiplicity
 _atom_site_fract_x
 _atom_site_fract_y
 _atom_site_fract_z
 _atom_site_occupancy
  Na  Na0  1  0.00000000  0.00000000  0.82840000  1.0
  Na  Na1  1  0.50000000  0.00000000  0.64982669  1.0
  Na  Na2  1  0.00000000  0.00000000  0.98880005  1.0
  Na  Na3  1  0.50000000  0.00000000  0.30440591  1.0
  Cl  Cl4  1  0.25000000  0.68589722  0.99413493  1.0
  Cl  Cl5  1  0.75000000  0.36066258  0.74589073  1.0
  Cl  Cl6  1  0.25000000  0.02002720  0.92789929  1.0
  Cl  Cl7  1  0.75000000  0.99765098  0.59356519  1.0
