# generated using pymatgen
data_NaCl
_symmetry_space_group_name_H-M   'P 1'
_cell_length_a   8.08085851
_cell_length_b   4.00929038
_cell_length_c   11.06907764
_cell_angle_alpha   90.00000000
_cell_angle_beta   90.00000000
_cell_angle_gamma   90.00000000
_symmetry_Int_Tables_number   1
_chemical_formula_structural   NaCl
_chemical_formula_sum   'Na4 Cl4'
_cell_volume   358.62160364
_cell_formula_units_Z   4
loop_
 _symmetry_equiv_pos_site_id
 _symmetry_equiv_pos_as_xyz
  1  'x, y, z'
loop_
 _atom_site_type_symbol
 _atom_site_label
 _atom_site_symmetry_multiplicity
 _atom_site_fract_x
 _atom_site_fract_y
 _atom_site_fract_z
 _atom_site_occupancy
  Na  Na0  1  0.00000000  0.00000000  0.03375584  1.0
  Na  Na1  1  0.00000000  0.50000000  0.57238700  1.0
  Na  Na2  1  0.00000000  0.50000000  0.08311992  1.0
  Na  Na3  1  0.00000000  0.00000000  0.79458061  1.0
  Cl  Cl4  1  0.41557693  0.25000000  0.44457237  1.0
  Cl  Cl5  1  0.98975352  0.75000000  0.84976332  1.0
  Cl  Cl6  1  0.49953447  0.75000000  0.69406286  1.0
  Cl  Cl7  1  0.82308423  0.25000000  0.24979835  1.0
