# generated using pymatgen
data_NaCl
_symmetry_space_group_name_H-M   'P 1'
_cell_length_a   6.75216069
_cell_length_b   6.62501512
_cell_length_c   15.26683713
_cell_angle_alpha   90.00000000
_cell_angle_beta   29.58802784
_cell_angle_gamma   90.00000000
_symmetry_Int_Tables_number   1
_chemical_formula_structural   NaCl
_chemical_formula_sum   'Na4 Cl4'
_cell_volume   337.20559417
_cell_formula_units_Z   4
loop_
 _symmetry_equiv_pos_site_id
 _symmetry_equiv_pos_as_xyz
  1  'x, y, z'
loop_
 _atom_site_type_symbol
 _atom_site_label
 _atom_site_symmetry_multiplicity
 _atom_site_fract_x
 _atom_site_fract_y
 _atom_site_fract_z
 _atom_site_occupancy
  Na  Na0  1  0.50377370  0.94849385  0.73927950  1.0
  Na  Na1  1  0.13034583  0.06320502  0.41537383  1.0
  Na  Na2  1  0.06071001  0.98260276  0.95816281  1.0
  Na  Na3  1  0.31854648  0.05947964  0.58299902  1.0
  Cl  Cl4  1  0.74113269  0.41262521  0.72450130  1.0
  Cl  Cl5  1  0.36614609  0.10363679  0.45311231  1.0
  Cl  Cl6  1  0.02403169  0.07127744  0.84548901  1.0
  Cl  Cl7  1  0.12562970  0.87527090  0.13161717  1.0
