# generated using pymatgen
data_NaCl
_symmetry_space_group_name_H-M   'P 1'
_cell_length_a   7.33986955
_cell_length_b   5.19837888
_cell_length_c   11.46007426
_cell_angle_alpha   90.00000000
_cell_angle_beta   26.76498722
_cell_angle_gamma   90.00000000
_symmetry_Int_Tables_number   1
_chemical_formula_structural   NaCl
_chemical_formula_sum   'Na4 Cl4'
_cell_volume   196.91396573
_cell_formula_units_Z   4
loop_
 _symmetry_equiv_pos_site_id
 _symmetry_equiv_pos_as_xyz
  1  'x, y, z'
loop_
 _atom_site_type_symbol
 _atom_site_label
 _atom_site_symmetry_multiplicity
 _atom_site_fract_x
 _atom_site_fract_y
 _atom_site_fract_z
 _atom_site_occupancy
  Na  Na0  1  0.40119432  0.00000000  0.84863825  1.0
  Na  Na1  1  0.85566315  0.50000000  0.98108897  1.0
  Na  Na2  1  0.74636226  0.00000000  0.88213081  1.0
  Na  Na3  1  0.96402302  0.50000000  0.44542139  1.0
  Cl  Cl4  1  0.91261248  0.28349582  0.86313940  1.0
  Cl  Cl5  1  0.26697669  0.55397294  0.71502979  1.0
  Cl  Cl6  1  0.81552686  0.66289118  0.64182933  1.0
  Cl  Cl7  1  0.60205530  0.49843801  0.38120188  1.0
