# generated using pymatgen
data_NaCl
_symmetry_space_group_name_H-M   'P 1'
_cell_length_a   3.75375312
_cell_length_b   10.82518909
_cell_length_c   19.37596226
_cell_angle_alpha   90.00000000
_cell_angle_beta   149.48058372
_cell_angle_gamma   90.00000000
_symmetry_Int_Tables_number   1
_chemical_formula_structural   NaCl
_chemical_formula_sum   'Na4 Cl4'
_cell_volume   399.83711480
_cell_formula_units_Z   4
loop_
 _symmetry_equiv_pos_site_id
 _symmetry_equiv_pos_as_xyz
  1  'x, y, z'
loop_
 _atom_site_type_symbol
 _atom_site_label
 _atom_site_symmetry_multiplicity
 _atom_site_fract_x
 _atom_site_fract_y
 _atom_site_fract_z
 _atom_site_occupancy
  Na  Na0  1  0.05477469  0.58969297  0.66666667  1.0
  Na  Na1  1  0.89047665  0.18559240  0.26680637  1.0
  Na  Na2  1  0.00133664  0.61524217  0.96359338  1.0
  Na  Na3  1  0.24988493  0.97044782  0.47720322  1.0
  Cl  Cl4  1  0.42716011  0.00090699  0.61359199  1.0
  Cl  Cl5  1  0.93469614  0.52897834  0.83975316  1.0
  Cl  Cl6  1  0.06120984  0.30476020  0.45428265  1.0
  Cl  Cl7  1  0.26329972  0.81551148  0.00369993  1.0
