# generated using pymatgen
data_NaCl
_symmetry_space_group_name_H-M   'P 1'
_cell_length_a   5.76617140
_cell_length_b   5.76617140
_cell_length_c   5.76617140
_cell_angle_alpha   90.00000000
_cell_angle_beta   90.00000000
_cell_angle_gamma   90.00000000
_symmetry_Int_Tables_number   1
_chemical_formula_structural   NaCl
_chemical_formula_sum   'Na4 Cl4'
_cell_volume   191.71789109
_cell_formula_units_Z   4
loop_
 _symmetry_equiv_pos_site_id
 _symmetry_equiv_pos_as_xyz
  1  'x, y, z'
loop_
 _atom_site_type_symbol
 _atom_site_label
 _atom_site_symmetry_multiplicity
 _atom_site_fract_x
 _atom_site_fract_y
 _atom_site_fract_z
 _atom_site_occupancy
  Na  Na0  1  0.14211563  0.14211563  0.14211563  1.0
  Na  Na1  1  0.33636963  0.83636963  0.66363037  1.0
  Na  Na2  1  0.82320186  0.67679814  0.32320186  1.0
  Na  Na3  1  0.70678532  0.29321468  0.79321468  1.0
  Cl  Cl4  1  0.71605311  0.71605311  0.71605311  1.0
  Cl  Cl5  1  0.21812747  0.71812747  0.78187253  1.0
  Cl  Cl6  1  0.97885293  0.52114707  0.47885293  1.0
  Cl  Cl7  1  0.26723315  0.73276685  0.23276685  1.0
