# generated using pymatgen
data_NaCl
_symmetry_space_group_name_H-M   'P 1'
_cell_length_a   5.76363671
_cell_length_b   5.76363671
_cell_length_c   5.76363671
_cell_angle_alpha   90.00000000
_cell_angle_beta   90.00000000
_cell_angle_gamma   90.00000000
_symmetry_Int_Tables_number   1
_chemical_formula_structural   NaCl
_chemical_formula_sum   'Na4 Cl4'
_cell_volume   191.46517652
_cell_formula_units_Z   4
loop_
 _symmetry_equiv_pos_site_id
 _symmetry_equiv_pos_as_xyz
  1  'x, y, z'
loop_
 _atom_site_type_symbol
 _atom_site_label
 _atom_site_symmetry_multiplicity
 _atom_site_fract_x
 _atom_site_fract_y
 _atom_site_fract_z
 _atom_site_occupancy
  Na  Na0  1  0.46384903  0.46384903  0.46384903  1.0
  Na  Na1  1  0.29269949  0.79269949  0.70730051  1.0
  Na  Na2  1  0.91976086  0.58023914  0.41976086  1.0
  Na  Na3  1  0.68777894  0.31222106  0.81222106  1.0
  Cl  Cl4  1  0.72813558  0.72813558  0.72813558  1.0
  Cl  Cl5  1  0.14381825  0.64381825  0.85618175  1.0
  Cl  Cl6  1  0.68096920  0.81903080  0.18096920  1.0
  Cl  Cl7  1  0.56493073  0.43506927  0.93506927  1.0
