# generated using pymatgen
data_NaCl
_symmetry_space_group_name_H-M   'P 1'
_cell_length_a   10.89246033
_cell_length_b   7.52067774
_cell_length_c   2.65156999
_cell_angle_alpha   90.00000000
_cell_angle_beta   90.00000000
_cell_angle_gamma   90.00000000
_symmetry_Int_Tables_number   1
_chemical_formula_structural   NaCl
_chemical_formula_sum   'Na4 Cl4'
_cell_volume   217.21312395
_cell_formula_units_Z   4
loop_
 _symmetry_equiv_pos_site_id
 _symmetry_equiv_pos_as_xyz
  1  'x, y, z'
loop_
 _atom_site_type_symbol
 _atom_site_label
 _atom_site_symmetry_multiplicity
 _atom_site_fract_x
 _atom_site_fract_y
 _atom_site_fract_z
 _atom_site_occupancy
  Na  Na0  1  0.94536223  0.43614297  0.92864922  1.0
  Na  Na1  1  0.76950227  0.37119157  0.19233377  1.0
  Na  Na2  1  0.95081953  0.70076193  0.69978188  1.0
  Na  Na3  1  0.24974780  0.15196506  0.67944944  1.0
  Cl  Cl4  1  0.17860943  0.25378682  0.41707062  1.0
  Cl  Cl5  1  0.97736067  0.00673506  0.44270064  1.0
  Cl  Cl6  1  0.12203449  0.39663580  0.35717800  1.0
  Cl  Cl7  1  0.09374792  0.57771332  0.15055533  1.0
