# generated using pymatgen
data_NaCl
_symmetry_space_group_name_H-M   'P 1'
_cell_length_a   5.67747017
_cell_length_b   8.52365014
_cell_length_c   6.32264867
_cell_angle_alpha   90.00000000
_cell_angle_beta   32.92710406
_cell_angle_gamma   90.00000000
_symmetry_Int_Tables_number   1
_chemical_formula_structural   NaCl
_chemical_formula_sum   'Na4 Cl4'
_cell_volume   166.31685544
_cell_formula_units_Z   4
loop_
 _symmetry_equiv_pos_site_id
 _symmetry_equiv_pos_as_xyz
  1  'x, y, z'
loop_
 _atom_site_type_symbol
 _atom_site_label
 _atom_site_symmetry_multiplicity
 _atom_site_fract_x
 _atom_site_fract_y
 _atom_site_fract_z
 _atom_site_occupancy
  Na  Na0  1  0.81635833  0.82673194  0.82574230  1.0
  Na  Na1  1  0.26078530  0.04827339  0.77865497  1.0
  Na  Na2  1  0.52250639  0.76240272  0.85123200  1.0
  Na  Na3  1  0.06326263  0.66825656  0.89025786  1.0
  Cl  Cl4  1  0.62642619  0.16928248  0.88473555  1.0
  Cl  Cl5  1  0.30970584  0.07634788  0.35752239  1.0
  Cl  Cl6  1  0.76744820  0.55896392  0.99906540  1.0
  Cl  Cl7  1  0.55142262  0.47735645  0.98318161  1.0
