# generated using pymatgen
data_NaCl
_symmetry_space_group_name_H-M   'P 1'
_cell_length_a   4.05776623
_cell_length_b   5.34095259
_cell_length_c   15.26045439
_cell_angle_alpha   90.00000000
_cell_angle_beta   90.00000000
_cell_angle_gamma   90.00000000
_symmetry_Int_Tables_number   1
_chemical_formula_structural   NaCl
_chemical_formula_sum   'Na4 Cl4'
_cell_volume   330.72971116
_cell_formula_units_Z   4
loop_
 _symmetry_equiv_pos_site_id
 _symmetry_equiv_pos_as_xyz
  1  'x, y, z'
loop_
 _atom_site_type_symbol
 _atom_site_label
 _atom_site_symmetry_multiplicity
 _atom_site_fract_x
 _atom_site_fract_y
 _atom_site_fract_z
 _atom_site_occupancy
  Na  Na0  1  0.59976156  0.86796086  0.78591044  1.0
  Na  Na1  1  0.90694825  0.09354257  0.42874468  1.0
  Na  Na2  1  0.69557972  0.66097240  0.99997312  1.0
  Na  Na3  1  0.34899583  0.37785327  0.77304666  1.0
  Cl  Cl4  1  0.75244457  0.23283047  0.76523155  1.0
  Cl  Cl5  1  0.64815481  0.03165172  0.42424778  1.0
  Cl  Cl6  1  0.84197338  0.40472421  0.87280450  1.0
  Cl  Cl7  1  0.33075234  0.61472029  0.75452809  1.0
