# generated using pymatgen
data_NaCl
_symmetry_space_group_name_H-M   'P 1'
_cell_length_a   6.57223284
_cell_length_b   7.34562442
_cell_length_c   21.73868094
_cell_angle_alpha   90.00000000
_cell_angle_beta   157.45419351
_cell_angle_gamma   90.00000000
_symmetry_Int_Tables_number   1
_chemical_formula_structural   NaCl
_chemical_formula_sum   'Na4 Cl4'
_cell_volume   402.39427675
_cell_formula_units_Z   4
loop_
 _symmetry_equiv_pos_site_id
 _symmetry_equiv_pos_as_xyz
  1  'x, y, z'
loop_
 _atom_site_type_symbol
 _atom_site_label
 _atom_site_symmetry_multiplicity
 _atom_site_fract_x
 _atom_site_fract_y
 _atom_site_fract_z
 _atom_site_occupancy
  Na  Na0  1  0.50387191  0.75454398  0.45110982  1.0
  Na  Na1  1  0.17774023  0.13486484  0.32421821  1.0
  Na  Na2  1  0.55072651  0.35670822  0.88972216  1.0
  Na  Na3  1  0.62975021  0.51911191  0.93769590  1.0
  Cl  Cl4  1  0.77352494  0.23743644  0.55877758  1.0
  Cl  Cl5  1  0.23100910  0.86870234  0.75892301  1.0
  Cl  Cl6  1  0.61881770  0.67382455  0.64032477  1.0
  Cl  Cl7  1  0.27498004  0.44789692  0.21629041  1.0
