# generated using pymatgen
data_NaCl
_symmetry_space_group_name_H-M   'P 1'
_cell_length_a   4.85608981
_cell_length_b   3.55889513
_cell_length_c   19.31161352
_cell_angle_alpha   90.00000000
_cell_angle_beta   83.18604390
_cell_angle_gamma   90.00000000
_symmetry_Int_Tables_number   1
_chemical_formula_structural   NaCl
_chemical_formula_sum   'Na4 Cl4'
_cell_volume   331.39198324
_cell_formula_units_Z   4
loop_
 _symmetry_equiv_pos_site_id
 _symmetry_equiv_pos_as_xyz
  1  'x, y, z'
loop_
 _atom_site_type_symbol
 _atom_site_label
 _atom_site_symmetry_multiplicity
 _atom_site_fract_x
 _atom_site_fract_y
 _atom_site_fract_z
 _atom_site_occupancy
  Na  Na0  1  0.59485605  0.53040869  0.75572565  1.0
  Na  Na1  1  0.34005434  0.34528009  0.63793168  1.0
  Na  Na2  1  0.30370488  0.75805897  0.27494818  1.0
  Na  Na3  1  0.34398394  0.64270568  0.89953413  1.0
  Cl  Cl4  1  0.20426528  0.20917921  0.78964320  1.0
  Cl  Cl5  1  0.37535988  0.39335342  0.57594694  1.0
  Cl  Cl6  1  0.92702199  0.30908339  0.73237015  1.0
  Cl  Cl7  1  0.61345846  0.85431904  0.99560301  1.0
