# generated using pymatgen
data_NaCl
_symmetry_space_group_name_H-M   'P 1'
_cell_length_a   4.45286184
_cell_length_b   4.45286184
_cell_length_c   17.68339722
_cell_angle_alpha   90.00000000
_cell_angle_beta   90.00000000
_cell_angle_gamma   90.00000000
_symmetry_Int_Tables_number   1
_chemical_formula_structural   NaCl
_chemical_formula_sum   'Na4 Cl4'
_cell_volume   350.62602105
_cell_formula_units_Z   4
loop_
 _symmetry_equiv_pos_site_id
 _symmetry_equiv_pos_as_xyz
  1  'x, y, z'
loop_
 _atom_site_type_symbol
 _atom_site_label
 _atom_site_symmetry_multiplicity
 _atom_site_fract_x
 _atom_site_fract_y
 _atom_site_fract_z
 _atom_site_occupancy
  Na  Na0  1  0.01757700  0.65282651  0.62497109  1.0
  Na  Na1  1  0.95575488  0.37137880  0.26798404  1.0
  Na  Na2  1  0.38906203  0.02804093  0.74566108  1.0
  Na  Na3  1  0.55929869  0.32870981  0.75659090  1.0
  Cl  Cl4  1  0.81422701  0.00433413  0.65574230  1.0
  Cl  Cl5  1  0.91361397  0.91586246  0.69364963  1.0
  Cl  Cl6  1  0.65646752  0.09819969  0.21609155  1.0
  Cl  Cl7  1  0.35568028  0.23580979  0.11597538  1.0
