# generated using pymatgen
data_NaCl
_symmetry_space_group_name_H-M   'P 1'
_cell_length_a   2.94834740
_cell_length_b   7.22182322
_cell_length_c   6.33221261
_cell_angle_alpha   90.00000000
_cell_angle_beta   90.00000000
_cell_angle_gamma   90.00000000
_symmetry_Int_Tables_number   1
_chemical_formula_structural   NaCl
_chemical_formula_sum   'Na4 Cl4'
_cell_volume   134.82828058
_cell_formula_units_Z   4
loop_
 _symmetry_equiv_pos_site_id
 _symmetry_equiv_pos_as_xyz
  1  'x, y, z'
loop_
 _atom_site_type_symbol
 _atom_site_label
 _atom_site_symmetry_multiplicity
 _atom_site_fract_x
 _atom_site_fract_y
 _atom_site_fract_z
 _atom_site_occupancy
  Na  Na0  1  0.62033916  0.73970837  0.77809398  1.0
  Na  Na1  1  0.29152007  0.01928089  0.38075487  1.0
  Na  Na2  1  0.74569150  0.31066711  0.80705156  1.0
  Na  Na3  1  0.79002706  0.52073805  0.86763286  1.0
  Cl  Cl4  1  0.55325149  0.43198364  0.72681328  1.0
  Cl  Cl5  1  0.08628806  0.24002629  0.47098268  1.0
  Cl  Cl6  1  0.54199065  0.66441570  0.50127352  1.0
  Cl  Cl7  1  0.75467145  0.43555210  0.51096055  1.0
