# generated using pymatgen
data_NaCl
_symmetry_space_group_name_H-M   'P 1'
_cell_length_a   3.79990004
_cell_length_b   8.31460671
_cell_length_c   10.76297821
_cell_angle_alpha   90.00000000
_cell_angle_beta   24.43941191
_cell_angle_gamma   90.00000000
_symmetry_Int_Tables_number   1
_chemical_formula_structural   NaCl
_chemical_formula_sum   'Na4 Cl4'
_cell_volume   140.69030061
_cell_formula_units_Z   4
loop_
 _symmetry_equiv_pos_site_id
 _symmetry_equiv_pos_as_xyz
  1  'x, y, z'
loop_
 _atom_site_type_symbol
 _atom_site_label
 _atom_site_symmetry_multiplicity
 _atom_site_fract_x
 _atom_site_fract_y
 _atom_site_fract_z
 _atom_site_occupancy
  Na  Na0  1  0.59286467  0.97094729  0.83971300  1.0
  Na  Na1  1  0.92795767  0.49961759  0.17108804  1.0
  Na  Na2  1  0.83499269  0.91476253  0.90317879  1.0
  Na  Na3  1  0.80682118  0.34905477  0.83162702  1.0
  Cl  Cl4  1  0.62041808  0.12886013  0.64809676  1.0
  Cl  Cl5  1  0.75527373  0.35456577  0.00010628  1.0
  Cl  Cl6  1  0.09759905  0.16283806  0.99925775  1.0
  Cl  Cl7  1  0.89643639  0.50078546  0.42091712  1.0
