# generated using pymatgen
data_NaCl
_symmetry_space_group_name_H-M   'P 1'
_cell_length_a   5.90210515
_cell_length_b   9.83101864
_cell_length_c   2.95371074
_cell_angle_alpha   90.00000000
_cell_angle_beta   90.00000000
_cell_angle_gamma   90.00000000
_symmetry_Int_Tables_number   1
_chemical_formula_structural   NaCl
_chemical_formula_sum   'Na4 Cl4'
_cell_volume   171.38524283
_cell_formula_units_Z   4
loop_
 _symmetry_equiv_pos_site_id
 _symmetry_equiv_pos_as_xyz
  1  'x, y, z'
loop_
 _atom_site_type_symbol
 _atom_site_label
 _atom_site_symmetry_multiplicity
 _atom_site_fract_x
 _atom_site_fract_y
 _atom_site_fract_z
 _atom_site_occupancy
  Na  Na0  1  0.13434321  0.69858042  0.49661727  1.0
  Na  Na1  1  0.89892933  0.18013995  0.36407591  1.0
  Na  Na2  1  0.56591971  0.66872338  0.36324355  1.0
  Na  Na3  1  0.40490552  0.85967247  0.97104619  1.0
  Cl  Cl4  1  0.74322763  0.16034589  0.99945252  1.0
  Cl  Cl5  1  0.68708511  0.99970281  0.76285433  1.0
  Cl  Cl6  1  0.52896334  0.38141986  0.66802971  1.0
  Cl  Cl7  1  0.38952900  0.67830974  0.23165834  1.0
