# generated using pymatgen
data_NaCl
_symmetry_space_group_name_H-M   'P 1'
_cell_length_a   7.09190717
_cell_length_b   7.09190717
_cell_length_c   5.61653289
_cell_angle_alpha   90.00000000
_cell_angle_beta   90.00000000
_cell_angle_gamma   120.00000000
_symmetry_Int_Tables_number   1
_chemical_formula_structural   NaCl
_chemical_formula_sum   'Na4 Cl4'
_cell_volume   244.63862246
_cell_formula_units_Z   4
loop_
 _symmetry_equiv_pos_site_id
 _symmetry_equiv_pos_as_xyz
  1  'x, y, z'
loop_
 _atom_site_type_symbol
 _atom_site_label
 _atom_site_symmetry_multiplicity
 _atom_site_fract_x
 _atom_site_fract_y
 _atom_site_fract_z
 _atom_site_occupancy
  Na  Na0  1  0.33333333  0.66666667  0.83413339  1.0
  Na  Na1  1  0.33333333  0.66666667  0.09503122  1.0
  Na  Na2  1  0.33333333  0.66666667  0.40415217  1.0
  Na  Na3  1  0.66666667  0.33333333  0.11292784  1.0
  Cl  Cl4  1  0.00000000  0.00000000  0.05257303  1.0
  Cl  Cl5  1  0.50552530  0.89993890  0.59235559  1.0
  Cl  Cl6  1  0.36510126  0.36504259  0.96530742  1.0
  Cl  Cl7  1  0.89036468  0.55809703  0.63119166  1.0
