# generated using pymatgen
data_NaCl
_symmetry_space_group_name_H-M   'P 1'
_cell_length_a   7.01926444
_cell_length_b   17.14011595
_cell_length_c   3.42403356
_cell_angle_alpha   90.00000000
_cell_angle_beta   90.00000000
_cell_angle_gamma   90.00000000
_symmetry_Int_Tables_number   1
_chemical_formula_structural   NaCl
_chemical_formula_sum   'Na4 Cl4'
_cell_volume   411.94892350
_cell_formula_units_Z   4
loop_
 _symmetry_equiv_pos_site_id
 _symmetry_equiv_pos_as_xyz
  1  'x, y, z'
loop_
 _atom_site_type_symbol
 _atom_site_label
 _atom_site_symmetry_multiplicity
 _atom_site_fract_x
 _atom_site_fract_y
 _atom_site_fract_z
 _atom_site_occupancy
  Na  Na0  1  0.00000000  0.59617897  0.72641201  1.0
  Na  Na1  1  0.00000000  0.84161004  0.55088937  1.0
  Na  Na2  1  0.00000000  0.71503396  0.42751773  1.0
  Na  Na3  1  0.00000000  0.09785096  0.84507671  1.0
  Cl  Cl4  1  0.49927814  0.88364786  0.29727600  1.0
  Cl  Cl5  1  0.82160871  0.78030416  0.08401582  1.0
  Cl  Cl6  1  0.50819942  0.45338810  0.42395015  1.0
  Cl  Cl7  1  0.51273338  0.93125719  0.65886003  1.0
