# generated using pymatgen
data_NaCl
_symmetry_space_group_name_H-M   'P 1'
_cell_length_a   5.91483562
_cell_length_b   20.07775813
_cell_length_c   7.89572196
_cell_angle_alpha   90.00000000
_cell_angle_beta   25.02126125
_cell_angle_gamma   90.00000000
_symmetry_Int_Tables_number   1
_chemical_formula_structural   NaCl
_chemical_formula_sum   'Na4 Cl4'
_cell_volume   396.59153463
_cell_formula_units_Z   4
loop_
 _symmetry_equiv_pos_site_id
 _symmetry_equiv_pos_as_xyz
  1  'x, y, z'
loop_
 _atom_site_type_symbol
 _atom_site_label
 _atom_site_symmetry_multiplicity
 _atom_site_fract_x
 _atom_site_fract_y
 _atom_site_fract_z
 _atom_site_occupancy
  Na  Na0  1  0.00000000  0.50000000  0.00000000  1.0
  Na  Na1  1  0.50000000  0.00000000  0.00000000  1.0
  Na  Na2  1  0.50000000  0.00000000  0.50000000  1.0
  Na  Na3  1  0.50000000  0.50000000  0.50000000  1.0
  Cl  Cl4  1  0.25411157  0.84734996  0.34561933  1.0
  Cl  Cl5  1  0.19905503  0.41926675  0.46791077  1.0
  Cl  Cl6  1  0.49928891  0.15863774  0.11042539  1.0
  Cl  Cl7  1  0.21056873  0.79280231  0.99980570  1.0
