# generated using pymatgen
data_NaCl
_symmetry_space_group_name_H-M   'P 1'
_cell_length_a   5.50587388
_cell_length_b   13.43925542
_cell_length_c   3.62152733
_cell_angle_alpha   90.00000000
_cell_angle_beta   90.00000000
_cell_angle_gamma   90.00000000
_symmetry_Int_Tables_number   1
_chemical_formula_structural   NaCl
_chemical_formula_sum   'Na4 Cl4'
_cell_volume   267.97435484
_cell_formula_units_Z   4
loop_
 _symmetry_equiv_pos_site_id
 _symmetry_equiv_pos_as_xyz
  1  'x, y, z'
loop_
 _atom_site_type_symbol
 _atom_site_label
 _atom_site_symmetry_multiplicity
 _atom_site_fract_x
 _atom_site_fract_y
 _atom_site_fract_z
 _atom_site_occupancy
  Na  Na0  1  0.25000000  0.70065143  0.74852016  1.0
  Na  Na1  1  0.75000000  0.97979588  0.76710627  1.0
  Na  Na2  1  0.75000000  0.18013527  0.59211553  1.0
  Na  Na3  1  0.25000000  0.57196769  0.77481959  1.0
  Cl  Cl4  1  0.25000000  0.85254979  0.25683279  1.0
  Cl  Cl5  1  0.75000000  0.81856775  0.52489857  1.0
  Cl  Cl6  1  0.75000000  0.01204087  0.41476541  1.0
  Cl  Cl7  1  0.25000000  0.64693794  0.23485560  1.0
