# generated using pymatgen
data_NaCl
_symmetry_space_group_name_H-M   'P 1'
_cell_length_a   8.18873461
_cell_length_b   8.18873461
_cell_length_c   3.32217918
_cell_angle_alpha   90.00000000
_cell_angle_beta   90.00000000
_cell_angle_gamma   90.00000000
_symmetry_Int_Tables_number   1
_chemical_formula_structural   NaCl
_chemical_formula_sum   'Na4 Cl4'
_cell_volume   222.76996911
_cell_formula_units_Z   4
loop_
 _symmetry_equiv_pos_site_id
 _symmetry_equiv_pos_as_xyz
  1  'x, y, z'
loop_
 _atom_site_type_symbol
 _atom_site_label
 _atom_site_symmetry_multiplicity
 _atom_site_fract_x
 _atom_site_fract_y
 _atom_site_fract_z
 _atom_site_occupancy
  Na  Na0  1  0.75081621  0.54771099  0.80708879  1.0
  Na  Na1  1  0.77854433  0.97624864  0.06367382  1.0
  Na  Na2  1  0.05975282  0.57230338  0.14975143  1.0
  Na  Na3  1  0.10304006  0.81226832  0.65060494  1.0
  Cl  Cl4  1  0.18855184  0.65101685  0.22338326  1.0
  Cl  Cl5  1  0.54897059  0.57199623  0.00097664  1.0
  Cl  Cl6  1  0.34937449  0.92580646  0.69502485  1.0
  Cl  Cl7  1  0.44587039  0.86908114  0.11794281  1.0
