# generated using pymatgen
data_NaCl
_symmetry_space_group_name_H-M   'P 1'
_cell_length_a   5.90148616
_cell_length_b   13.79419855
_cell_length_c   2.02255556
_cell_angle_alpha   90.00000000
_cell_angle_beta   52.30485715
_cell_angle_gamma   90.00000000
_symmetry_Int_Tables_number   1
_chemical_formula_structural   NaCl
_chemical_formula_sum   'Na4 Cl4'
_cell_volume   130.28246732
_cell_formula_units_Z   4
loop_
 _symmetry_equiv_pos_site_id
 _symmetry_equiv_pos_as_xyz
  1  'x, y, z'
loop_
 _atom_site_type_symbol
 _atom_site_label
 _atom_site_symmetry_multiplicity
 _atom_site_fract_x
 _atom_site_fract_y
 _atom_site_fract_z
 _atom_site_occupancy
  Na  Na0  1  0.57630581  0.34859515  0.74496615  1.0
  Na  Na1  1  0.44011867  0.95940352  0.62103145  1.0
  Na  Na2  1  0.16235302  0.28295426  0.39086863  1.0
  Na  Na3  1  0.93716608  0.44114123  0.05545178  1.0
  Cl  Cl4  1  0.17557529  0.74271295  0.08968827  1.0
  Cl  Cl5  1  0.48878767  0.77697751  0.04641484  1.0
  Cl  Cl6  1  0.29301775  0.18722561  0.88750219  1.0
  Cl  Cl7  1  0.56608963  0.15845785  0.14669866  1.0
