# generated using pymatgen
data_NaCl
_symmetry_space_group_name_H-M   'P 1'
_cell_length_a   6.66806663
_cell_length_b   6.66806663
_cell_length_c   3.02534905
_cell_angle_alpha   90.00000000
_cell_angle_beta   90.00000000
_cell_angle_gamma   90.00000000
_symmetry_Int_Tables_number   1
_chemical_formula_structural   NaCl
_chemical_formula_sum   'Na4 Cl4'
_cell_volume   134.51643541
_cell_formula_units_Z   4
loop_
 _symmetry_equiv_pos_site_id
 _symmetry_equiv_pos_as_xyz
  1  'x, y, z'
loop_
 _atom_site_type_symbol
 _atom_site_label
 _atom_site_symmetry_multiplicity
 _atom_site_fract_x
 _atom_site_fract_y
 _atom_site_fract_z
 _atom_site_occupancy
  Na  Na0  1  0.83827474  0.49374263  0.83731179  1.0
  Na  Na1  1  0.72871629  0.94885288  0.55679873  1.0
  Na  Na2  1  0.27149123  0.49526413  0.11377691  1.0
  Na  Na3  1  0.08469266  0.74862769  0.81897447  1.0
  Cl  Cl4  1  0.13029674  0.69726411  0.30074992  1.0
  Cl  Cl5  1  0.52061141  0.57249617  0.08417590  1.0
  Cl  Cl6  1  0.42752912  0.95022696  0.70545357  1.0
  Cl  Cl7  1  0.32996873  0.86200838  0.85524159  1.0
