# generated using pymatgen
data_NaCl
_symmetry_space_group_name_H-M   'P 1'
_cell_length_a   6.30479712
_cell_length_b   6.30479712
_cell_length_c   6.30479712
_cell_angle_alpha   90.00000000
_cell_angle_beta   90.00000000
_cell_angle_gamma   90.00000000
_symmetry_Int_Tables_number   1
_chemical_formula_structural   NaCl
_chemical_formula_sum   'Na4 Cl4'
_cell_volume   250.61862812
_cell_formula_units_Z   4
loop_
 _symmetry_equiv_pos_site_id
 _symmetry_equiv_pos_as_xyz
  1  'x, y, z'
loop_
 _atom_site_type_symbol
 _atom_site_label
 _atom_site_symmetry_multiplicity
 _atom_site_fract_x
 _atom_site_fract_y
 _atom_site_fract_z
 _atom_site_occupancy
  Na  Na0  1  0.90396134  0.90396134  0.90396134  1.0
  Na  Na1  1  0.27089074  0.77089074  0.72910926  1.0
  Na  Na2  1  0.70854358  0.79145642  0.20854358  1.0
  Na  Na3  1  0.87039916  0.12960084  0.62960084  1.0
  Cl  Cl4  1  0.49604495  0.49604495  0.49604495  1.0
  Cl  Cl5  1  0.15677719  0.65677719  0.84322281  1.0
  Cl  Cl6  1  0.46838234  0.03161766  0.96838234  1.0
  Cl  Cl7  1  0.01240337  0.98759663  0.48759663  1.0
