# generated using pymatgen
data_NaCl
_symmetry_space_group_name_H-M   'P 1'
_cell_length_a   6.20262237
_cell_length_b   6.20262237
_cell_length_c   3.78922589
_cell_angle_alpha   90.00000000
_cell_angle_beta   90.00000000
_cell_angle_gamma   90.00000000
_symmetry_Int_Tables_number   1
_chemical_formula_structural   NaCl
_chemical_formula_sum   'Na4 Cl4'
_cell_volume   145.78108500
_cell_formula_units_Z   4
loop_
 _symmetry_equiv_pos_site_id
 _symmetry_equiv_pos_as_xyz
  1  'x, y, z'
loop_
 _atom_site_type_symbol
 _atom_site_label
 _atom_site_symmetry_multiplicity
 _atom_site_fract_x
 _atom_site_fract_y
 _atom_site_fract_z
 _atom_site_occupancy
  Na  Na0  1  0.74218158  0.53919233  0.66231300  1.0
  Na  Na1  1  0.51183546  0.19941058  0.05618189  1.0
  Na  Na2  1  0.29788260  0.42732381  0.48791871  1.0
  Na  Na3  1  0.16036865  0.82523250  0.20956294  1.0
  Cl  Cl4  1  0.00000000  0.00000000  0.23962698  1.0
  Cl  Cl5  1  0.00000000  0.00000000  0.61352071  1.0
  Cl  Cl6  1  0.00000000  0.50000000  0.86423622  1.0
  Cl  Cl7  1  0.50000000  0.00000000  0.71404160  1.0
