# generated using pymatgen
data_NaCl
_symmetry_space_group_name_H-M   'P 1'
_cell_length_a   5.45513957
_cell_length_b   13.11128477
_cell_length_c   2.02110110
_cell_angle_alpha   90.00000000
_cell_angle_beta   148.26646440
_cell_angle_gamma   90.00000000
_symmetry_Int_Tables_number   1
_chemical_formula_structural   NaCl
_chemical_formula_sum   'Na4 Cl4'
_cell_volume   76.03258469
_cell_formula_units_Z   4
loop_
 _symmetry_equiv_pos_site_id
 _symmetry_equiv_pos_as_xyz
  1  'x, y, z'
loop_
 _atom_site_type_symbol
 _atom_site_label
 _atom_site_symmetry_multiplicity
 _atom_site_fract_x
 _atom_site_fract_y
 _atom_site_fract_z
 _atom_site_occupancy
  Na  Na0  1  0.79248722  0.43989910  0.77286268  1.0
  Na  Na1  1  0.15496831  0.87996171  0.58331069  1.0
  Na  Na2  1  0.81704581  0.29582711  0.31735004  1.0
  Na  Na3  1  0.69054109  0.72054900  0.96532009  1.0
  Cl  Cl4  1  0.59603272  0.84867566  0.30750175  1.0
  Cl  Cl5  1  0.60837219  0.50968532  0.10754244  1.0
  Cl  Cl6  1  0.42605853  0.02182459  0.88941484  1.0
  Cl  Cl7  1  0.53820098  0.10967115  0.01621372  1.0
