# generated using pymatgen
data_NaCl
_symmetry_space_group_name_H-M   'P 1'
_cell_length_a   6.73027546
_cell_length_b   17.86729927
_cell_length_c   2.56048678
_cell_angle_alpha   90.00000000
_cell_angle_beta   90.00000000
_cell_angle_gamma   90.00000000
_symmetry_Int_Tables_number   1
_chemical_formula_structural   NaCl
_chemical_formula_sum   'Na4 Cl4'
_cell_volume   307.90326148
_cell_formula_units_Z   4
loop_
 _symmetry_equiv_pos_site_id
 _symmetry_equiv_pos_as_xyz
  1  'x, y, z'
loop_
 _atom_site_type_symbol
 _atom_site_label
 _atom_site_symmetry_multiplicity
 _atom_site_fract_x
 _atom_site_fract_y
 _atom_site_fract_z
 _atom_site_occupancy
  Na  Na0  1  0.84301331  0.63679820  0.73442761  1.0
  Na  Na1  1  0.38368961  0.84923056  0.19028185  1.0
  Na  Na2  1  0.69084459  0.28783517  0.14250371  1.0
  Na  Na3  1  0.03989795  0.11587508  0.93690260  1.0
  Cl  Cl4  1  0.15951346  0.98189386  0.37041862  1.0
  Cl  Cl5  1  0.67541815  0.18701605  0.32233261  1.0
  Cl  Cl6  1  0.15756417  0.66062034  0.87897573  1.0
  Cl  Cl7  1  0.13329816  0.71677066  0.03603565  1.0
