# generated using pymatgen
data_NaCl
_symmetry_space_group_name_H-M   'P 1'
_cell_length_a   4.07507427
_cell_length_b   15.99073270
_cell_length_c   2.62197121
_cell_angle_alpha   90.00000000
_cell_angle_beta   90.00000000
_cell_angle_gamma   90.00000000
_symmetry_Int_Tables_number   1
_chemical_formula_structural   NaCl
_chemical_formula_sum   'Na4 Cl4'
_cell_volume   170.85662006
_cell_formula_units_Z   4
loop_
 _symmetry_equiv_pos_site_id
 _symmetry_equiv_pos_as_xyz
  1  'x, y, z'
loop_
 _atom_site_type_symbol
 _atom_site_label
 _atom_site_symmetry_multiplicity
 _atom_site_fract_x
 _atom_site_fract_y
 _atom_site_fract_z
 _atom_site_occupancy
  Na  Na0  1  0.21206308  0.57360665  0.75222926  1.0
  Na  Na1  1  0.62605702  0.87550811  0.50071233  1.0
  Na  Na2  1  0.65569706  0.41240044  0.81140056  1.0
  Na  Na3  1  0.67208678  0.53531356  0.18358944  1.0
  Cl  Cl4  1  0.00000000  0.87873279  0.33613333  1.0
  Cl  Cl5  1  0.50000000  0.82809472  0.02602529  1.0
  Cl  Cl6  1  0.00000000  0.87529756  0.94481401  1.0
  Cl  Cl7  1  0.50000000  0.20848182  0.75535765  1.0
