# generated using pymatgen
data_NaCl
_symmetry_space_group_name_H-M   'P 1'
_cell_length_a   4.50041286
_cell_length_b   24.62755421
_cell_length_c   2.93484526
_cell_angle_alpha   90.00000000
_cell_angle_beta   90.00000000
_cell_angle_gamma   90.00000000
_symmetry_Int_Tables_number   1
_chemical_formula_structural   NaCl
_chemical_formula_sum   'Na4 Cl4'
_cell_volume   325.28111404
_cell_formula_units_Z   4
loop_
 _symmetry_equiv_pos_site_id
 _symmetry_equiv_pos_as_xyz
  1  'x, y, z'
loop_
 _atom_site_type_symbol
 _atom_site_label
 _atom_site_symmetry_multiplicity
 _atom_site_fract_x
 _atom_site_fract_y
 _atom_site_fract_z
 _atom_site_occupancy
  Na  Na0  1  0.50000000  0.66178917  0.78333710  1.0
  Na  Na1  1  0.50000000  0.27944139  0.62651879  1.0
  Na  Na2  1  0.50000000  0.38201754  0.47869613  1.0
  Na  Na3  1  0.50000000  0.81939190  0.70931612  1.0
  Cl  Cl4  1  0.00000000  0.98326899  0.82676060  1.0
  Cl  Cl5  1  0.00000000  0.52219211  0.09119573  1.0
  Cl  Cl6  1  0.50000000  0.50934657  0.46114083  1.0
  Cl  Cl7  1  0.50000000  0.05902182  0.11051077  1.0
