# generated using pymatgen
data_NaCl
_symmetry_space_group_name_H-M   'P 1'
_cell_length_a   3.07948469
_cell_length_b   15.45188311
_cell_length_c   3.38424739
_cell_angle_alpha   90.00000000
_cell_angle_beta   90.00000000
_cell_angle_gamma   90.00000000
_symmetry_Int_Tables_number   1
_chemical_formula_structural   NaCl
_chemical_formula_sum   'Na4 Cl4'
_cell_volume   161.03547776
_cell_formula_units_Z   4
loop_
 _symmetry_equiv_pos_site_id
 _symmetry_equiv_pos_as_xyz
  1  'x, y, z'
loop_
 _atom_site_type_symbol
 _atom_site_label
 _atom_site_symmetry_multiplicity
 _atom_site_fract_x
 _atom_site_fract_y
 _atom_site_fract_z
 _atom_site_occupancy
  Na  Na0  1  0.70941890  0.74912459  0.88479241  1.0
  Na  Na1  1  0.34068275  0.09905425  0.53704545  1.0
  Na  Na2  1  0.55208214  0.40824952  0.05876394  1.0
  Na  Na3  1  0.65847835  0.34489255  0.44820389  1.0
  Cl  Cl4  1  0.25776207  0.78162345  0.23481735  1.0
  Cl  Cl5  1  0.01126914  0.07741826  0.12137778  1.0
  Cl  Cl6  1  0.15034707  0.17956938  0.61311146  1.0
  Cl  Cl7  1  0.95307104  0.45340481  0.36404719  1.0
