# generated using pymatgen
data_NaCl
_symmetry_space_group_name_H-M   'P 1'
_cell_length_a   6.15882294
_cell_length_b   6.15882294
_cell_length_c   6.53601384
_cell_angle_alpha   90.00000000
_cell_angle_beta   90.00000000
_cell_angle_gamma   90.00000000
_symmetry_Int_Tables_number   1
_chemical_formula_structural   NaCl
_chemical_formula_sum   'Na4 Cl4'
_cell_volume   247.91819461
_cell_formula_units_Z   4
loop_
 _symmetry_equiv_pos_site_id
 _symmetry_equiv_pos_as_xyz
  1  'x, y, z'
loop_
 _atom_site_type_symbol
 _atom_site_label
 _atom_site_symmetry_multiplicity
 _atom_site_fract_x
 _atom_site_fract_y
 _atom_site_fract_z
 _atom_site_occupancy
  Na  Na0  1  0.86551329  0.69693013  0.59666982  1.0
  Na  Na1  1  0.03283925  0.84467629  0.51789277  1.0
  Na  Na2  1  0.32594582  0.06797010  0.00830932  1.0
  Na  Na3  1  0.11409509  0.74476038  0.34252493  1.0
  Cl  Cl4  1  0.62030149  0.88366432  0.25806567  1.0
  Cl  Cl5  1  0.60752857  0.78982489  0.16682759  1.0
  Cl  Cl6  1  0.59648695  0.61684190  0.41835804  1.0
  Cl  Cl7  1  0.28522254  0.31385089  0.52132213  1.0
