# generated using pymatgen
data_NaCl
_symmetry_space_group_name_H-M   'P 1'
_cell_length_a   7.65843075
_cell_length_b   16.90792878
_cell_length_c   5.41052523
_cell_angle_alpha   90.00000000
_cell_angle_beta   31.96771672
_cell_angle_gamma   90.00000000
_symmetry_Int_Tables_number   1
_chemical_formula_structural   NaCl
_chemical_formula_sum   'Na4 Cl4'
_cell_volume   370.92617533
_cell_formula_units_Z   4
loop_
 _symmetry_equiv_pos_site_id
 _symmetry_equiv_pos_as_xyz
  1  'x, y, z'
loop_
 _atom_site_type_symbol
 _atom_site_label
 _atom_site_symmetry_multiplicity
 _atom_site_fract_x
 _atom_site_fract_y
 _atom_site_fract_z
 _atom_site_occupancy
  Na  Na0  1  0.00000000  0.51828582  0.50000000  1.0
  Na  Na1  1  0.50000000  0.61217653  0.50000000  1.0
  Na  Na2  1  0.00000000  0.63263060  0.50000000  1.0
  Na  Na3  1  0.50000000  0.94150495  0.50000000  1.0
  Cl  Cl4  1  0.00000000  0.83997575  0.00000000  1.0
  Cl  Cl5  1  0.50000000  0.32235882  0.00000000  1.0
  Cl  Cl6  1  0.00000000  0.34206693  0.00000000  1.0
  Cl  Cl7  1  0.50000000  0.88592731  0.00000000  1.0
