# generated using pymatgen
data_NaCl
_symmetry_space_group_name_H-M   'P 1'
_cell_length_a   5.62609573
_cell_length_b   5.62609573
_cell_length_c   5.62609573
_cell_angle_alpha   90.00000000
_cell_angle_beta   90.00000000
_cell_angle_gamma   90.00000000
_symmetry_Int_Tables_number   1
_chemical_formula_structural   NaCl
_chemical_formula_sum   'Na4 Cl4'
_cell_volume   178.08254463
_cell_formula_units_Z   4
loop_
 _symmetry_equiv_pos_site_id
 _symmetry_equiv_pos_as_xyz
  1  'x, y, z'
loop_
 _atom_site_type_symbol
 _atom_site_label
 _atom_site_symmetry_multiplicity
 _atom_site_fract_x
 _atom_site_fract_y
 _atom_site_fract_z
 _atom_site_occupancy
  Na  Na0  1  0.44610300  0.44610300  0.44610300  1.0
  Na  Na1  1  0.41172299  0.91172299  0.58827701  1.0
  Na  Na2  1  0.40755852  0.09244148  0.90755852  1.0
  Na  Na3  1  0.33072300  0.66927700  0.16927700  1.0
  Cl  Cl4  1  0.57842164  0.57842164  0.57842164  1.0
  Cl  Cl5  1  0.29402001  0.79402001  0.70597999  1.0
  Cl  Cl6  1  0.10752114  0.39247886  0.60752114  1.0
  Cl  Cl7  1  0.72684405  0.27315595  0.77315595  1.0
