# generated using pymatgen
data_NaCl
_symmetry_space_group_name_H-M   'P 1'
_cell_length_a   4.28021188
_cell_length_b   4.28021188
_cell_length_c   13.79246522
_cell_angle_alpha   90.00000000
_cell_angle_beta   90.00000000
_cell_angle_gamma   120.00000000
_symmetry_Int_Tables_number   1
_chemical_formula_structural   NaCl
_chemical_formula_sum   'Na4 Cl4'
_cell_volume   218.82808780
_cell_formula_units_Z   4
loop_
 _symmetry_equiv_pos_site_id
 _symmetry_equiv_pos_as_xyz
  1  'x, y, z'
loop_
 _atom_site_type_symbol
 _atom_site_label
 _atom_site_symmetry_multiplicity
 _atom_site_fract_x
 _atom_site_fract_y
 _atom_site_fract_z
 _atom_site_occupancy
  Na  Na0  1  0.00000000  0.00000000  0.51907798  1.0
  Na  Na1  1  0.50887447  0.00000000  0.64879932  1.0
  Na  Na2  1  0.00000000  0.12609107  0.09920681  1.0
  Na  Na3  1  0.32245580  0.32245580  0.94281700  1.0
  Cl  Cl4  1  0.33333333  0.66666667  0.34806501  1.0
  Cl  Cl5  1  0.66666667  0.33333333  0.31859330  1.0
  Cl  Cl6  1  0.33333333  0.66666667  0.87188052  1.0
  Cl  Cl7  1  0.66666667  0.33333333  0.75135201  1.0
