# generated using pymatgen
data_NaCl
_symmetry_space_group_name_H-M   'P 1'
_cell_length_a   5.57543749
_cell_length_b   5.57543749
_cell_length_c   12.24568454
_cell_angle_alpha   90.00000000
_cell_angle_beta   90.00000000
_cell_angle_gamma   90.00000000
_symmetry_Int_Tables_number   1
_chemical_formula_structural   NaCl
_chemical_formula_sum   'Na4 Cl4'
_cell_volume   380.66326601
_cell_formula_units_Z   4
loop_
 _symmetry_equiv_pos_site_id
 _symmetry_equiv_pos_as_xyz
  1  'x, y, z'
loop_
 _atom_site_type_symbol
 _atom_site_label
 _atom_site_symmetry_multiplicity
 _atom_site_fract_x
 _atom_site_fract_y
 _atom_site_fract_z
 _atom_site_occupancy
  Na  Na0  1  0.57499492  0.07499492  0.73644186  1.0
  Na  Na1  1  0.34401765  0.84401765  0.41890268  1.0
  Na  Na2  1  0.46832137  0.03167863  0.86146587  1.0
  Na  Na3  1  0.47838418  0.02161582  0.54245767  1.0
  Cl  Cl4  1  0.00000000  0.00000000  0.16835695  1.0
  Cl  Cl5  1  0.50000000  0.50000000  0.39136218  1.0
  Cl  Cl6  1  0.50000000  0.00000000  0.96133393  1.0
  Cl  Cl7  1  0.00000000  0.50000000  0.90104899  1.0
