# generated using pymatgen
data_NaCl
_symmetry_space_group_name_H-M   'P 1'
_cell_length_a   5.11536592
_cell_length_b   5.11536592
_cell_length_c   12.99015216
_cell_angle_alpha   90.00000000
_cell_angle_beta   90.00000000
_cell_angle_gamma   90.00000000
_symmetry_Int_Tables_number   1
_chemical_formula_structural   NaCl
_chemical_formula_sum   'Na4 Cl4'
_cell_volume   339.91290232
_cell_formula_units_Z   4
loop_
 _symmetry_equiv_pos_site_id
 _symmetry_equiv_pos_as_xyz
  1  'x, y, z'
loop_
 _atom_site_type_symbol
 _atom_site_label
 _atom_site_symmetry_multiplicity
 _atom_site_fract_x
 _atom_site_fract_y
 _atom_site_fract_z
 _atom_site_occupancy
  Na  Na0  1  0.82121801  0.82121801  0.58244477  1.0
  Na  Na1  1  0.49584742  0.49584742  0.29065075  1.0
  Na  Na2  1  0.94900310  0.05099690  0.10995675  1.0
  Na  Na3  1  0.90249658  0.09750342  0.88840426  1.0
  Cl  Cl4  1  0.77881378  0.77881378  0.49507328  1.0
  Cl  Cl5  1  0.20973405  0.20973405  0.35292501  1.0
  Cl  Cl6  1  0.14339113  0.85660887  0.99529368  1.0
  Cl  Cl7  1  0.16573371  0.83426629  0.76017413  1.0
