# generated using pymatgen
data_NaCl
_symmetry_space_group_name_H-M   'P 1'
_cell_length_a   5.62200769
_cell_length_b   5.62200769
_cell_length_c   11.45381204
_cell_angle_alpha   90.00000000
_cell_angle_beta   90.00000000
_cell_angle_gamma   90.00000000
_symmetry_Int_Tables_number   1
_chemical_formula_structural   NaCl
_chemical_formula_sum   'Na4 Cl4'
_cell_volume   362.02029888
_cell_formula_units_Z   4
loop_
 _symmetry_equiv_pos_site_id
 _symmetry_equiv_pos_as_xyz
  1  'x, y, z'
loop_
 _atom_site_type_symbol
 _atom_site_label
 _atom_site_symmetry_multiplicity
 _atom_site_fract_x
 _atom_site_fract_y
 _atom_site_fract_z
 _atom_site_occupancy
  Na  Na0  1  0.00000000  0.00000000  0.85743084  1.0
  Na  Na1  1  0.00000000  0.50000000  0.75752052  1.0
  Na  Na2  1  0.50000000  0.50000000  0.56908312  1.0
  Na  Na3  1  0.50000000  0.00000000  0.41977102  1.0
  Cl  Cl4  1  0.00000000  0.00000000  0.51216190  1.0
  Cl  Cl5  1  0.00000000  0.50000000  0.52706272  1.0
  Cl  Cl6  1  0.50000000  0.50000000  0.37446888  1.0
  Cl  Cl7  1  0.50000000  0.00000000  0.51584089  1.0
