# generated using pymatgen
data_NaCl
_symmetry_space_group_name_H-M   'P 1'
_cell_length_a   4.28341211
_cell_length_b   4.28341211
_cell_length_c   8.10278421
_cell_angle_alpha   90.00000000
_cell_angle_beta   90.00000000
_cell_angle_gamma   90.00000000
_symmetry_Int_Tables_number   1
_chemical_formula_structural   NaCl
_chemical_formula_sum   'Na4 Cl4'
_cell_volume   148.66679999
_cell_formula_units_Z   4
loop_
 _symmetry_equiv_pos_site_id
 _symmetry_equiv_pos_as_xyz
  1  'x, y, z'
loop_
 _atom_site_type_symbol
 _atom_site_label
 _atom_site_symmetry_multiplicity
 _atom_site_fract_x
 _atom_site_fract_y
 _atom_site_fract_z
 _atom_site_occupancy
  Na  Na0  1  0.94647823  0.46212538  0.21299297  1.0
  Na  Na1  1  0.53810499  0.44302368  0.89197591  1.0
  Na  Na2  1  0.86060644  0.23446668  0.77133778  1.0
  Na  Na3  1  0.29947563  0.07097272  0.12054613  1.0
  Cl  Cl4  1  0.68584920  0.72461529  0.02727484  1.0
  Cl  Cl5  1  0.19171230  0.56987638  0.06359488  1.0
  Cl  Cl6  1  0.74339114  0.51413875  0.81301986  1.0
  Cl  Cl7  1  0.57442699  0.83798337  0.66196528  1.0
