# generated using pymatgen
data_NaCl
_symmetry_space_group_name_H-M   'P 1'
_cell_length_a   4.27429080
_cell_length_b   4.27429080
_cell_length_c   12.41918950
_cell_angle_alpha   90.00000000
_cell_angle_beta   90.00000000
_cell_angle_gamma   90.00000000
_symmetry_Int_Tables_number   1
_chemical_formula_structural   NaCl
_chemical_formula_sum   'Na4 Cl4'
_cell_volume   226.89315061
_cell_formula_units_Z   4
loop_
 _symmetry_equiv_pos_site_id
 _symmetry_equiv_pos_as_xyz
  1  'x, y, z'
loop_
 _atom_site_type_symbol
 _atom_site_label
 _atom_site_symmetry_multiplicity
 _atom_site_fract_x
 _atom_site_fract_y
 _atom_site_fract_z
 _atom_site_occupancy
  Na  Na0  1  0.72236577  0.19549590  0.48791985  1.0
  Na  Na1  1  0.40960090  0.00262415  0.00930778  1.0
  Na  Na2  1  0.87660368  0.13678051  0.05704215  1.0
  Na  Na3  1  0.42960137  0.21344275  0.13921184  1.0
  Cl  Cl4  1  0.72041077  0.26330407  0.37487357  1.0
  Cl  Cl5  1  0.24179649  0.41347588  0.91138191  1.0
  Cl  Cl6  1  0.33931969  0.65253726  0.55519392  1.0
  Cl  Cl7  1  0.25484296  0.73351414  0.14541682  1.0
