# generated using pymatgen
data_NaCl
_symmetry_space_group_name_H-M   'P 1'
_cell_length_a   5.48027960
_cell_length_b   5.48027960
_cell_length_c   5.48027960
_cell_angle_alpha   90.00000000
_cell_angle_beta   90.00000000
_cell_angle_gamma   90.00000000
_symmetry_Int_Tables_number   1
_chemical_formula_structural   NaCl
_chemical_formula_sum   'Na4 Cl4'
_cell_volume   164.59178278
_cell_formula_units_Z   4
loop_
 _symmetry_equiv_pos_site_id
 _symmetry_equiv_pos_as_xyz
  1  'x, y, z'
loop_
 _atom_site_type_symbol
 _atom_site_label
 _atom_site_symmetry_multiplicity
 _atom_site_fract_x
 _atom_site_fract_y
 _atom_site_fract_z
 _atom_site_occupancy
  Na  Na0  1  0.62591247  0.62591247  0.62591247  1.0
  Na  Na1  1  0.22130526  0.72130526  0.77869474  1.0
  Na  Na2  1  0.63751168  0.86248832  0.13751168  1.0
  Na  Na3  1  0.30971591  0.69028409  0.19028409  1.0
  Cl  Cl4  1  0.93034044  0.93034044  0.93034044  1.0
  Cl  Cl5  1  0.78849922  0.28849922  0.21150078  1.0
  Cl  Cl6  1  0.23662273  0.26337727  0.73662273  1.0
  Cl  Cl7  1  0.68124866  0.31875134  0.81875134  1.0
