# generated using pymatgen
data_NaCl
_symmetry_space_group_name_H-M   'P 1'
_cell_length_a   5.22470479
_cell_length_b   5.22470479
_cell_length_c   13.01716727
_cell_angle_alpha   90.00000000
_cell_angle_beta   90.00000000
_cell_angle_gamma   90.00000000
_symmetry_Int_Tables_number   1
_chemical_formula_structural   NaCl
_chemical_formula_sum   'Na4 Cl4'
_cell_volume   355.33664610
_cell_formula_units_Z   4
loop_
 _symmetry_equiv_pos_site_id
 _symmetry_equiv_pos_as_xyz
  1  'x, y, z'
loop_
 _atom_site_type_symbol
 _atom_site_label
 _atom_site_symmetry_multiplicity
 _atom_site_fract_x
 _atom_site_fract_y
 _atom_site_fract_z
 _atom_site_occupancy
  Na  Na0  1  0.84579514  0.33001150  0.12682421  1.0
  Na  Na1  1  0.52330692  0.48848780  0.14161808  1.0
  Na  Na2  1  0.76725042  0.21127414  0.92088627  1.0
  Na  Na3  1  0.17510908  0.10134124  0.76083766  1.0
  Cl  Cl4  1  0.59482386  0.14058783  0.15749741  1.0
  Cl  Cl5  1  0.38076378  0.63613146  0.17251085  1.0
  Cl  Cl6  1  0.80252270  0.47610833  0.54657871  1.0
  Cl  Cl7  1  0.58825658  0.84632164  0.09412419  1.0
