# generated using pymatgen
data_NaCl
_symmetry_space_group_name_H-M   'P 1'
_cell_length_a   6.58056210
_cell_length_b   6.58056210
_cell_length_c   8.70609407
_cell_angle_alpha   90.00000000
_cell_angle_beta   90.00000000
_cell_angle_gamma   90.00000000
_symmetry_Int_Tables_number   1
_chemical_formula_structural   NaCl
_chemical_formula_sum   'Na4 Cl4'
_cell_volume   377.00693508
_cell_formula_units_Z   4
loop_
 _symmetry_equiv_pos_site_id
 _symmetry_equiv_pos_as_xyz
  1  'x, y, z'
loop_
 _atom_site_type_symbol
 _atom_site_label
 _atom_site_symmetry_multiplicity
 _atom_site_fract_x
 _atom_site_fract_y
 _atom_site_fract_z
 _atom_site_occupancy
  Na  Na0  1  0.37373112  0.37373112  0.62500000  1.0
  Na  Na1  1  0.44042026  0.44042026  0.12500000  1.0
  Na  Na2  1  0.86586505  0.13413495  0.37500000  1.0
  Na  Na3  1  0.74861199  0.25138801  0.87500000  1.0
  Cl  Cl4  1  0.00000000  0.18328881  0.00000000  1.0
  Cl  Cl5  1  0.00000000  0.27592177  0.50000000  1.0
  Cl  Cl6  1  0.79596554  0.00000000  0.75000000  1.0
  Cl  Cl7  1  0.96653232  0.00000000  0.25000000  1.0
