# generated using pymatgen
data_NaCl
_symmetry_space_group_name_H-M   'P 1'
_cell_length_a   4.98843196
_cell_length_b   4.98843196
_cell_length_c   15.56408243
_cell_angle_alpha   90.00000000
_cell_angle_beta   90.00000000
_cell_angle_gamma   90.00000000
_symmetry_Int_Tables_number   1
_chemical_formula_structural   NaCl
_chemical_formula_sum   'Na4 Cl4'
_cell_volume   387.30368425
_cell_formula_units_Z   4
loop_
 _symmetry_equiv_pos_site_id
 _symmetry_equiv_pos_as_xyz
  1  'x, y, z'
loop_
 _atom_site_type_symbol
 _atom_site_label
 _atom_site_symmetry_multiplicity
 _atom_site_fract_x
 _atom_site_fract_y
 _atom_site_fract_z
 _atom_site_occupancy
  Na  Na0  1  0.92755804  0.22302094  0.67920808  1.0
  Na  Na1  1  0.41252088  0.20420406  0.43033498  1.0
  Na  Na2  1  0.84707394  0.01612679  0.32887841  1.0
  Na  Na3  1  0.46646446  0.24803707  0.93425428  1.0
  Cl  Cl4  1  0.50000000  0.50000000  0.61267369  1.0
  Cl  Cl5  1  0.50000000  0.50000000  0.45522158  1.0
  Cl  Cl6  1  0.50000000  0.50000000  0.88393491  1.0
  Cl  Cl7  1  0.50000000  0.50000000  0.66730335  1.0
