# generated using pymatgen
data_NaCl
_symmetry_space_group_name_H-M   'P 1'
_cell_length_a   5.36948318
_cell_length_b   5.36948318
_cell_length_c   8.17670897
_cell_angle_alpha   90.00000000
_cell_angle_beta   90.00000000
_cell_angle_gamma   90.00000000
_symmetry_Int_Tables_number   1
_chemical_formula_structural   NaCl
_chemical_formula_sum   'Na4 Cl4'
_cell_volume   235.74555506
_cell_formula_units_Z   4
loop_
 _symmetry_equiv_pos_site_id
 _symmetry_equiv_pos_as_xyz
  1  'x, y, z'
loop_
 _atom_site_type_symbol
 _atom_site_label
 _atom_site_symmetry_multiplicity
 _atom_site_fract_x
 _atom_site_fract_y
 _atom_site_fract_z
 _atom_site_occupancy
  Na  Na0  1  0.00000000  0.50000000  0.72130079  1.0
  Na  Na1  1  0.50000000  0.00000000  0.83930452  1.0
  Na  Na2  1  0.50000000  0.50000000  0.36280619  1.0
  Na  Na3  1  0.50000000  0.50000000  0.84257675  1.0
  Cl  Cl4  1  0.62864105  0.17115075  0.21838983  1.0
  Cl  Cl5  1  0.18494593  0.25732680  0.42151734  1.0
  Cl  Cl6  1  0.77597954  0.86244863  0.40579111  1.0
  Cl  Cl7  1  0.80673283  0.78816266  0.49997470  1.0
