# generated using pymatgen
data_NaCl
_symmetry_space_group_name_H-M   'P 1'
_cell_length_a   6.71099579
_cell_length_b   6.71099579
_cell_length_c   6.71099579
_cell_angle_alpha   90.00000000
_cell_angle_beta   90.00000000
_cell_angle_gamma   90.00000000
_symmetry_Int_Tables_number   1
_chemical_formula_structural   NaCl
_chemical_formula_sum   'Na4 Cl4'
_cell_volume   302.24623461
_cell_formula_units_Z   4
loop_
 _symmetry_equiv_pos_site_id
 _symmetry_equiv_pos_as_xyz
  1  'x, y, z'
loop_
 _atom_site_type_symbol
 _atom_site_label
 _atom_site_symmetry_multiplicity
 _atom_site_fract_x
 _atom_site_fract_y
 _atom_site_fract_z
 _atom_site_occupancy
  Na  Na0  1  0.49494233  0.49494233  0.49494233  1.0
  Na  Na1  1  0.96269397  0.46269397  0.03730603  1.0
  Na  Na2  1  0.93106724  0.56893276  0.43106724  1.0
  Na  Na3  1  0.30746940  0.69253060  0.19253060  1.0
  Cl  Cl4  1  0.59346993  0.59346993  0.59346993  1.0
  Cl  Cl5  1  0.71702198  0.21702198  0.28297802  1.0
  Cl  Cl6  1  0.17500178  0.32499822  0.67500178  1.0
  Cl  Cl7  1  0.70693019  0.29306981  0.79306981  1.0
