# generated using pymatgen
data_NaCl
_symmetry_space_group_name_H-M   'P 1'
_cell_length_a   4.19830022
_cell_length_b   4.19830022
_cell_length_c   13.86572595
_cell_angle_alpha   90.00000000
_cell_angle_beta   90.00000000
_cell_angle_gamma   90.00000000
_symmetry_Int_Tables_number   1
_chemical_formula_structural   NaCl
_chemical_formula_sum   'Na4 Cl4'
_cell_volume   244.39346888
_cell_formula_units_Z   4
loop_
 _symmetry_equiv_pos_site_id
 _symmetry_equiv_pos_as_xyz
  1  'x, y, z'
loop_
 _atom_site_type_symbol
 _atom_site_label
 _atom_site_symmetry_multiplicity
 _atom_site_fract_x
 _atom_site_fract_y
 _atom_site_fract_z
 _atom_site_occupancy
  Na  Na0  1  0.82856762  0.21286730  0.61223434  1.0
  Na  Na1  1  0.45775415  0.22473633  0.92090884  1.0
  Na  Na2  1  0.86660640  0.10788579  0.37179912  1.0
  Na  Na3  1  0.47448412  0.11401812  0.71786433  1.0
  Cl  Cl4  1  0.78579362  0.30758873  0.41948655  1.0
  Cl  Cl5  1  0.05514553  0.31470248  0.34815528  1.0
  Cl  Cl6  1  0.86340839  0.80452396  0.18363903  1.0
  Cl  Cl7  1  0.46381252  0.79664096  0.46531214  1.0
