# generated using pymatgen
data_NaCl
_symmetry_space_group_name_H-M   'P 1'
_cell_length_a   5.78095871
_cell_length_b   5.78095871
_cell_length_c   5.78095871
_cell_angle_alpha   90.00000000
_cell_angle_beta   90.00000000
_cell_angle_gamma   90.00000000
_symmetry_Int_Tables_number   1
_chemical_formula_structural   NaCl
_chemical_formula_sum   'Na4 Cl4'
_cell_volume   193.19665484
_cell_formula_units_Z   4
loop_
 _symmetry_equiv_pos_site_id
 _symmetry_equiv_pos_as_xyz
  1  'x, y, z'
loop_
 _atom_site_type_symbol
 _atom_site_label
 _atom_site_symmetry_multiplicity
 _atom_site_fract_x
 _atom_site_fract_y
 _atom_site_fract_z
 _atom_site_occupancy
  Na  Na0  1  0.40465364  0.40465364  0.40465364  1.0
  Na  Na1  1  0.97509338  0.47509338  0.02490662  1.0
  Na  Na2  1  0.83951202  0.66048798  0.33951202  1.0
  Na  Na3  1  0.21173316  0.78826684  0.28826684  1.0
  Cl  Cl4  1  0.63803304  0.63803304  0.63803304  1.0
  Cl  Cl5  1  0.74780391  0.24780391  0.25219609  1.0
  Cl  Cl6  1  0.09464358  0.40535642  0.59464358  1.0
  Cl  Cl7  1  0.76262645  0.23737355  0.73737355  1.0
