# generated using pymatgen
data_NaCl
_symmetry_space_group_name_H-M   'P 1'
_cell_length_a   3.98712827
_cell_length_b   3.98712827
_cell_length_c   10.82466279
_cell_angle_alpha   90.00000000
_cell_angle_beta   90.00000000
_cell_angle_gamma   90.00000000
_symmetry_Int_Tables_number   1
_chemical_formula_structural   NaCl
_chemical_formula_sum   'Na4 Cl4'
_cell_volume   172.08174099
_cell_formula_units_Z   4
loop_
 _symmetry_equiv_pos_site_id
 _symmetry_equiv_pos_as_xyz
  1  'x, y, z'
loop_
 _atom_site_type_symbol
 _atom_site_label
 _atom_site_symmetry_multiplicity
 _atom_site_fract_x
 _atom_site_fract_y
 _atom_site_fract_z
 _atom_site_occupancy
  Na  Na0  1  0.00000000  0.50000000  0.23103039  1.0
  Na  Na1  1  0.50000000  0.00000000  0.10958264  1.0
  Na  Na2  1  0.00000000  0.50000000  0.41813514  1.0
  Na  Na3  1  0.50000000  0.00000000  0.52239815  1.0
  Cl  Cl4  1  0.71541625  0.71541625  0.10768073  1.0
  Cl  Cl5  1  0.41034622  0.41034622  0.53373641  1.0
  Cl  Cl6  1  0.61993294  0.38006706  0.20671199  1.0
  Cl  Cl7  1  0.29832449  0.70167551  0.38673796  1.0
