# generated using pymatgen
data_NaCl
_symmetry_space_group_name_H-M   'P 1'
_cell_length_a   2.83431107
_cell_length_b   2.83431107
_cell_length_c   12.13092108
_cell_angle_alpha   90.00000000
_cell_angle_beta   90.00000000
_cell_angle_gamma   90.00000000
_symmetry_Int_Tables_number   1
_chemical_formula_structural   NaCl
_chemical_formula_sum   'Na4 Cl4'
_cell_volume   97.45156173
_cell_formula_units_Z   4
loop_
 _symmetry_equiv_pos_site_id
 _symmetry_equiv_pos_as_xyz
  1  'x, y, z'
loop_
 _atom_site_type_symbol
 _atom_site_label
 _atom_site_symmetry_multiplicity
 _atom_site_fract_x
 _atom_site_fract_y
 _atom_site_fract_z
 _atom_site_occupancy
  Na  Na0  1  0.91122925  0.91122925  0.59693321  1.0
  Na  Na1  1  0.30583812  0.30583812  0.54375016  1.0
  Na  Na2  1  0.49980199  0.50019801  0.80931226  1.0
  Na  Na3  1  0.25435494  0.74564506  0.38342827  1.0
  Cl  Cl4  1  0.00000000  0.50000000  0.50140132  1.0
  Cl  Cl5  1  0.00000000  0.50000000  0.62883547  1.0
  Cl  Cl6  1  0.50000000  0.00000000  0.44778732  1.0
  Cl  Cl7  1  0.50000000  0.00000000  0.64115005  1.0
