# generated using pymatgen
data_NaCl
_symmetry_space_group_name_H-M   'P 1'
_cell_length_a   6.70918931
_cell_length_b   6.70918931
_cell_length_c   15.93310843
_cell_angle_alpha   90.00000000
_cell_angle_beta   90.00000000
_cell_angle_gamma   120.00000000
_symmetry_Int_Tables_number   1
_chemical_formula_structural   NaCl
_chemical_formula_sum   'Na4 Cl4'
_cell_volume   621.11388226
_cell_formula_units_Z   4
loop_
 _symmetry_equiv_pos_site_id
 _symmetry_equiv_pos_as_xyz
  1  'x, y, z'
loop_
 _atom_site_type_symbol
 _atom_site_label
 _atom_site_symmetry_multiplicity
 _atom_site_fract_x
 _atom_site_fract_y
 _atom_site_fract_z
 _atom_site_occupancy
  Na  Na0  1  0.00000000  0.00000000  0.99982796  1
  Na  Na1  1  0.00000000  0.00000000  0.94701392  1
  Na  Na2  1  0.33333333  0.66666667  0.60051015  1
  Na  Na3  1  0.66666667  0.33333333  1.32265636  1
  Cl  Cl4  1  0.33333333  0.66666667  0.36054940  1
  Cl  Cl5  1  0.66666667  0.33333333  1.46620862  1
  Cl  Cl6  1  0.33333333  0.66666667  0.90332305  1
  Cl  Cl7  1  0.66666667  0.33333333  1.42320317  1
