# generated using pymatgen
data_NaCl
_symmetry_space_group_name_H-M   'P 1'
_cell_length_a   6.55436937
_cell_length_b   6.55436937
_cell_length_c   6.55436937
_cell_angle_alpha   90.00000000
_cell_angle_beta   90.00000000
_cell_angle_gamma   90.00000000
_symmetry_Int_Tables_number   1
_chemical_formula_structural   NaCl
_chemical_formula_sum   'Na4 Cl4'
_cell_volume   281.57412092
_cell_formula_units_Z   4
loop_
 _symmetry_equiv_pos_site_id
 _symmetry_equiv_pos_as_xyz
  1  'x, y, z'
loop_
 _atom_site_type_symbol
 _atom_site_label
 _atom_site_symmetry_multiplicity
 _atom_site_fract_x
 _atom_site_fract_y
 _atom_site_fract_z
 _atom_site_occupancy
  Na  Na0  1  0.96988470  0.96988470  0.96988470  1.0
  Na  Na1  1  0.88849062  0.38849062  0.11150938  1.0
  Na  Na2  1  0.70288409  0.79711591  0.20288409  1.0
  Na  Na3  1  0.57323822  0.42676178  0.92676178  1.0
  Cl  Cl4  1  0.23687386  0.23687386  0.23687386  1.0
  Cl  Cl5  1  0.78464110  0.28464110  0.21535890  1.0
  Cl  Cl6  1  0.54149381  0.95850619  0.04149381  1.0
  Cl  Cl7  1  0.20671108  0.79328892  0.29328892  1.0
