# generated using pymatgen
data_NaCl
_symmetry_space_group_name_H-M   'P 1'
_cell_length_a   4.08116950
_cell_length_b   8.49726258
_cell_length_c   8.58126486
_cell_angle_alpha   90.00000000
_cell_angle_beta   90.00000000
_cell_angle_gamma   90.00000000
_symmetry_Int_Tables_number   1
_chemical_formula_structural   NaCl
_chemical_formula_sum   'Na4 Cl4'
_cell_volume   297.58770073
_cell_formula_units_Z   4
loop_
 _symmetry_equiv_pos_site_id
 _symmetry_equiv_pos_as_xyz
  1  'x, y, z'
loop_
 _atom_site_type_symbol
 _atom_site_label
 _atom_site_symmetry_multiplicity
 _atom_site_fract_x
 _atom_site_fract_y
 _atom_site_fract_z
 _atom_site_occupancy
  Na  Na0  1  0.87066862  0.45373135  0.45090437  1.0
  Na  Na1  1  0.87847730  0.21937078  0.00319849  1.0
  Na  Na2  1  0.54938352  0.62776986  0.22195619  1.0
  Na  Na3  1  0.68460021  0.16149311  0.61613628  1.0
  Cl  Cl4  1  0.23797705  0.76755519  0.27722200  1.0
  Cl  Cl5  1  0.69618868  0.67647826  0.94814439  1.0
  Cl  Cl6  1  0.15464136  0.83031281  0.89006978  1.0
  Cl  Cl7  1  0.32309296  0.44929489  0.16146972  1.0
