# generated using pymatgen
data_NaCl
_symmetry_space_group_name_H-M   'P 1'
_cell_length_a   5.96713506
_cell_length_b   12.28150104
_cell_length_c   8.33714660
_cell_angle_alpha   90.00000000
_cell_angle_beta   146.10091238
_cell_angle_gamma   90.00000000
_symmetry_Int_Tables_number   1
_chemical_formula_structural   NaCl
_chemical_formula_sum   'Na4 Cl4'
_cell_volume   340.76912095
_cell_formula_units_Z   4
loop_
 _symmetry_equiv_pos_site_id
 _symmetry_equiv_pos_as_xyz
  1  'x, y, z'
loop_
 _atom_site_type_symbol
 _atom_site_label
 _atom_site_symmetry_multiplicity
 _atom_site_fract_x
 _atom_site_fract_y
 _atom_site_fract_z
 _atom_site_occupancy
  Na  Na0  1  0.69279973  0.61585045  0.39787659  1.0
  Na  Na1  1  0.56079277  0.35103291  0.09274928  1.0
  Na  Na2  1  0.96325807  0.55120480  0.28159020  1.0
  Na  Na3  1  0.00552645  0.11431616  0.81161418  1.0
  Cl  Cl4  1  0.23440926  0.81985838  0.18242877  1.0
  Cl  Cl5  1  0.70024950  0.59609495  0.94856823  1.0
  Cl  Cl6  1  0.21658075  0.82393740  0.57469130  1.0
  Cl  Cl7  1  0.34586324  0.45690877  0.28723842  1.0
