# generated using pymatgen
data_NaCl
_symmetry_space_group_name_H-M   'P 1'
_cell_length_a   3.31207208
_cell_length_b   13.31838014
_cell_length_c   7.69381582
_cell_angle_alpha   90.00000000
_cell_angle_beta   90.00000000
_cell_angle_gamma   90.00000000
_symmetry_Int_Tables_number   1
_chemical_formula_structural   NaCl
_chemical_formula_sum   'Na4 Cl4'
_cell_volume   339.38525654
_cell_formula_units_Z   4
loop_
 _symmetry_equiv_pos_site_id
 _symmetry_equiv_pos_as_xyz
  1  'x, y, z'
loop_
 _atom_site_type_symbol
 _atom_site_label
 _atom_site_symmetry_multiplicity
 _atom_site_fract_x
 _atom_site_fract_y
 _atom_site_fract_z
 _atom_site_occupancy
  Na  Na0  1  0.84528788  0.49240734  0.24282160  1.0
  Na  Na1  1  0.06180656  0.20276213  0.03488215  1.0
  Na  Na2  1  0.52846777  0.80110413  0.23793488  1.0
  Na  Na3  1  0.65831944  0.07683577  0.68819913  1.0
  Cl  Cl4  1  0.34925814  0.52704270  0.09526632  1.0
  Cl  Cl5  1  0.76848383  0.63630536  0.56151443  1.0
  Cl  Cl6  1  0.49200126  0.91975336  0.05194740  1.0
  Cl  Cl7  1  0.43409914  0.46323536  0.17445383  1.0
