# generated using pymatgen
data_NaCl
_symmetry_space_group_name_H-M   'P 1'
_cell_length_a   4.65259058
_cell_length_b   12.84109810
_cell_length_c   8.78217926
_cell_angle_alpha   90.00000000
_cell_angle_beta   137.93017345
_cell_angle_gamma   90.00000000
_symmetry_Int_Tables_number   1
_chemical_formula_structural   NaCl
_chemical_formula_sum   'Na4 Cl4'
_cell_volume   351.55825048
_cell_formula_units_Z   4
loop_
 _symmetry_equiv_pos_site_id
 _symmetry_equiv_pos_as_xyz
  1  'x, y, z'
loop_
 _atom_site_type_symbol
 _atom_site_label
 _atom_site_symmetry_multiplicity
 _atom_site_fract_x
 _atom_site_fract_y
 _atom_site_fract_z
 _atom_site_occupancy
  Na  Na0  1  0.92272033  0.00000000  0.53310029  1.0
  Na  Na1  1  0.07377764  0.50000000  0.46198553  1.0
  Na  Na2  1  0.51076458  0.00000000  0.14958189  1.0
  Na  Na3  1  0.81815000  0.50000000  0.51423559  1.0
  Cl  Cl4  1  0.13589348  0.00000000  0.19899461  1.0
  Cl  Cl5  1  0.04861740  0.50000000  0.02727879  1.0
  Cl  Cl6  1  0.35729883  0.00000000  0.71207285  1.0
  Cl  Cl7  1  0.33085805  0.50000000  0.93563060  1.0
