# generated using pymatgen
data_NaCl
_symmetry_space_group_name_H-M   'P 1'
_cell_length_a   6.02800052
_cell_length_b   6.02800052
_cell_length_c   6.02800052
_cell_angle_alpha   90.00000000
_cell_angle_beta   90.00000000
_cell_angle_gamma   90.00000000
_symmetry_Int_Tables_number   1
_chemical_formula_structural   NaCl
_chemical_formula_sum   'Na4 Cl4'
_cell_volume   219.03819064
_cell_formula_units_Z   4
loop_
 _symmetry_equiv_pos_site_id
 _symmetry_equiv_pos_as_xyz
  1  'x, y, z'
loop_
 _atom_site_type_symbol
 _atom_site_label
 _atom_site_symmetry_multiplicity
 _atom_site_fract_x
 _atom_site_fract_y
 _atom_site_fract_z
 _atom_site_occupancy
  Na  Na0  1  0.90152179  0.90152179  0.90152179  1.0
  Na  Na1  1  0.90666731  0.40666731  0.09333269  1.0
  Na  Na2  1  0.50519389  0.99480611  0.00519389  1.0
  Na  Na3  1  0.68277061  0.31722939  0.81722939  1.0
  Cl  Cl4  1  0.27814013  0.27814013  0.27814013  1.0
  Cl  Cl5  1  0.70228078  0.20228078  0.29771922  1.0
  Cl  Cl6  1  0.65348647  0.84651353  0.15348647  1.0
  Cl  Cl7  1  0.08161993  0.91838007  0.41838007  1.0
