# generated using pymatgen
data_NaCl
_symmetry_space_group_name_H-M   'P 1'
_cell_length_a   6.26016586
_cell_length_b   7.71193129
_cell_length_c   6.75482893
_cell_angle_alpha   90.00000000
_cell_angle_beta   90.00000000
_cell_angle_gamma   90.00000000
_symmetry_Int_Tables_number   1
_chemical_formula_structural   NaCl
_chemical_formula_sum   'Na4 Cl4'
_cell_volume   326.10942152
_cell_formula_units_Z   4
loop_
 _symmetry_equiv_pos_site_id
 _symmetry_equiv_pos_as_xyz
  1  'x, y, z'
loop_
 _atom_site_type_symbol
 _atom_site_label
 _atom_site_symmetry_multiplicity
 _atom_site_fract_x
 _atom_site_fract_y
 _atom_site_fract_z
 _atom_site_occupancy
  Na  Na0  1  0.00000000  0.74689912  0.28228377  1.0
  Na  Na1  1  0.00000000  0.22838700  0.96791670  1.0
  Na  Na2  1  0.50000000  0.77560515  0.30325074  1.0
  Na  Na3  1  0.50000000  0.16438989  0.83802019  1.0
  Cl  Cl4  1  0.00000000  0.49300955  0.06787341  1.0
  Cl  Cl5  1  0.00000000  0.65214331  0.60025131  1.0
  Cl  Cl6  1  0.50000000  0.83820687  0.47726867  1.0
  Cl  Cl7  1  0.50000000  0.49783175  0.30793412  1.0
