# generated using pymatgen
data_NaCl
_symmetry_space_group_name_H-M   'P 1'
_cell_length_a   5.96876098
_cell_length_b   5.96876098
_cell_length_c   7.31455262
_cell_angle_alpha   90.00000000
_cell_angle_beta   90.00000000
_cell_angle_gamma   90.00000000
_symmetry_Int_Tables_number   1
_chemical_formula_structural   NaCl
_chemical_formula_sum   'Na4 Cl4'
_cell_volume   260.58903895
_cell_formula_units_Z   4
loop_
 _symmetry_equiv_pos_site_id
 _symmetry_equiv_pos_as_xyz
  1  'x, y, z'
loop_
 _atom_site_type_symbol
 _atom_site_label
 _atom_site_symmetry_multiplicity
 _atom_site_fract_x
 _atom_site_fract_y
 _atom_site_fract_z
 _atom_site_occupancy
  Na  Na0  1  0.92424703  0.92424703  0.00000000  1.0
  Na  Na1  1  0.50195026  0.50195026  0.50000000  1.0
  Na  Na2  1  0.24386361  0.75613639  0.75000000  1.0
  Na  Na3  1  0.53456458  0.46543542  0.25000000  1.0
  Cl  Cl4  1  0.26280662  0.26280662  0.00000000  1.0
  Cl  Cl5  1  0.34995157  0.34995157  0.50000000  1.0
  Cl  Cl6  1  0.95392425  0.04607575  0.75000000  1.0
  Cl  Cl7  1  0.13814985  0.86185015  0.25000000  1.0
