# generated using pymatgen
data_NaCl
_symmetry_space_group_name_H-M   'P 1'
_cell_length_a   4.91470468
_cell_length_b   4.91470468
_cell_length_c   4.91470468
_cell_angle_alpha   90.00000000
_cell_angle_beta   90.00000000
_cell_angle_gamma   90.00000000
_symmetry_Int_Tables_number   1
_chemical_formula_structural   NaCl
_chemical_formula_sum   'Na4 Cl4'
_cell_volume   118.71135983
_cell_formula_units_Z   4
loop_
 _symmetry_equiv_pos_site_id
 _symmetry_equiv_pos_as_xyz
  1  'x, y, z'
loop_
 _atom_site_type_symbol
 _atom_site_label
 _atom_site_symmetry_multiplicity
 _atom_site_fract_x
 _atom_site_fract_y
 _atom_site_fract_z
 _atom_site_occupancy
  Na  Na0  1  0.51637158  0.51637158  0.51637158  1.0
  Na  Na1  1  0.10025820  0.60025820  0.89974180  1.0
  Na  Na2  1  0.66626417  0.83373583  0.16626417  1.0
  Na  Na3  1  0.21642655  0.78357345  0.28357345  1.0
  Cl  Cl4  1  0.36408257  0.36408257  0.36408257  1.0
  Cl  Cl5  1  0.70589469  0.20589469  0.29410531  1.0
  Cl  Cl6  1  0.28761074  0.21238926  0.78761074  1.0
  Cl  Cl7  1  0.39725180  0.60274820  0.10274820  1.0
