# generated using pymatgen
data_NaCl
_symmetry_space_group_name_H-M   'P 1'
_cell_length_a   6.32470063
_cell_length_b   6.32470063
_cell_length_c   6.32470063
_cell_angle_alpha   90.00000000
_cell_angle_beta   90.00000000
_cell_angle_gamma   90.00000000
_symmetry_Int_Tables_number   1
_chemical_formula_structural   NaCl
_chemical_formula_sum   'Na4 Cl4'
_cell_volume   252.99965037
_cell_formula_units_Z   4
loop_
 _symmetry_equiv_pos_site_id
 _symmetry_equiv_pos_as_xyz
  1  'x, y, z'
loop_
 _atom_site_type_symbol
 _atom_site_label
 _atom_site_symmetry_multiplicity
 _atom_site_fract_x
 _atom_site_fract_y
 _atom_site_fract_z
 _atom_site_occupancy
  Na  Na0  1  0.89850097  0.89850097  0.89850097  1.0
  Na  Na1  1  0.63371954  0.13371954  0.36628046  1.0
  Na  Na2  1  0.53835236  0.96164764  0.03835236  1.0
  Na  Na3  1  0.66627031  0.33372969  0.83372969  1.0
  Cl  Cl4  1  0.08265166  0.08265166  0.08265166  1.0
  Cl  Cl5  1  0.99914717  0.49914717  0.00085283  1.0
  Cl  Cl6  1  0.08403231  0.41596769  0.58403231  1.0
  Cl  Cl7  1  0.97422879  0.02577121  0.52577121  1.0
