# generated using pymatgen
data_NaCl
_symmetry_space_group_name_H-M   'P 1'
_cell_length_a   5.08384987
_cell_length_b   11.92179468
_cell_length_c   6.03533672
_cell_angle_alpha   90.00000000
_cell_angle_beta   149.94562464
_cell_angle_gamma   90.00000000
_symmetry_Int_Tables_number   1
_chemical_formula_structural   NaCl
_chemical_formula_sum   'Na4 Cl4'
_cell_volume   183.19725489
_cell_formula_units_Z   4
loop_
 _symmetry_equiv_pos_site_id
 _symmetry_equiv_pos_as_xyz
  1  'x, y, z'
loop_
 _atom_site_type_symbol
 _atom_site_label
 _atom_site_symmetry_multiplicity
 _atom_site_fract_x
 _atom_site_fract_y
 _atom_site_fract_z
 _atom_site_occupancy
  Na  Na0  1  0.76104234  0.79173721  0.39507061  1.0
  Na  Na1  1  0.51493951  0.18006181  0.07955214  1.0
  Na  Na2  1  0.91903349  0.91195591  0.17206802  1.0
  Na  Na3  1  0.90433318  0.12805937  0.79962854  1.0
  Cl  Cl4  1  0.28274584  0.76342795  0.16088374  1.0
  Cl  Cl5  1  0.65018203  0.62843507  0.88651687  1.0
  Cl  Cl6  1  0.31150372  0.84074744  0.56356603  1.0
  Cl  Cl7  1  0.19756865  0.42256724  0.30363780  1.0
