# generated using pymatgen
data_NaCl
_symmetry_space_group_name_H-M   'P 1'
_cell_length_a   4.10594113
_cell_length_b   4.10594113
_cell_length_c   10.41710324
_cell_angle_alpha   90.00000000
_cell_angle_beta   90.00000000
_cell_angle_gamma   90.00000000
_symmetry_Int_Tables_number   1
_chemical_formula_structural   NaCl
_chemical_formula_sum   'Na4 Cl4'
_cell_volume   175.61936595
_cell_formula_units_Z   4
loop_
 _symmetry_equiv_pos_site_id
 _symmetry_equiv_pos_as_xyz
  1  'x, y, z'
loop_
 _atom_site_type_symbol
 _atom_site_label
 _atom_site_symmetry_multiplicity
 _atom_site_fract_x
 _atom_site_fract_y
 _atom_site_fract_z
 _atom_site_occupancy
  Na  Na0  1  0.98240045  0.98240045  0.00000000  1.0
  Na  Na1  1  0.48851157  0.48851157  0.50000000  1.0
  Na  Na2  1  0.35046734  0.64953266  0.75000000  1.0
  Na  Na3  1  0.53155764  0.46844236  0.25000000  1.0
  Cl  Cl4  1  0.34580552  0.34580552  0.00000000  1.0
  Cl  Cl5  1  0.27764488  0.27764488  0.50000000  1.0
  Cl  Cl6  1  0.06010487  0.93989513  0.75000000  1.0
  Cl  Cl7  1  0.12299088  0.87700912  0.25000000  1.0
