# generated using pymatgen
data_NaCl
_symmetry_space_group_name_H-M   'P 1'
_cell_length_a   6.69252092
_cell_length_b   2.18180189
_cell_length_c   23.66896154
_cell_angle_alpha   90.00000000
_cell_angle_beta   103.38119178
_cell_angle_gamma   90.00000000
_symmetry_Int_Tables_number   1
_chemical_formula_structural   NaCl
_chemical_formula_sum   'Na4 Cl4'
_cell_volume   336.22576214
_cell_formula_units_Z   4
loop_
 _symmetry_equiv_pos_site_id
 _symmetry_equiv_pos_as_xyz
  1  'x, y, z'
loop_
 _atom_site_type_symbol
 _atom_site_label
 _atom_site_symmetry_multiplicity
 _atom_site_fract_x
 _atom_site_fract_y
 _atom_site_fract_z
 _atom_site_occupancy
  Na  Na0  1  0.61596794  0.26850131  0.29154555  1.0
  Na  Na1  1  0.68944945  0.00780696  0.57202004  1.0
  Na  Na2  1  0.32006498  0.02881571  0.20428387  1.0
  Na  Na3  1  0.70836238  0.41141785  0.97950235  1.0
  Cl  Cl4  1  0.62175931  0.93071822  0.04807884  1.0
  Cl  Cl5  1  0.42500422  0.15648247  0.86072399  1.0
  Cl  Cl6  1  0.82836426  0.38476895  0.83409855  1.0
  Cl  Cl7  1  0.24673733  0.76604185  0.24809543  1.0
