# generated using pymatgen
data_NaCl
_symmetry_space_group_name_H-M   'P 1'
_cell_length_a   4.07869267
_cell_length_b   11.55373198
_cell_length_c   7.69462530
_cell_angle_alpha   90.00000000
_cell_angle_beta   90.00000000
_cell_angle_gamma   90.00000000
_symmetry_Int_Tables_number   1
_chemical_formula_structural   NaCl
_chemical_formula_sum   'Na4 Cl4'
_cell_volume   362.60246090
_cell_formula_units_Z   4
loop_
 _symmetry_equiv_pos_site_id
 _symmetry_equiv_pos_as_xyz
  1  'x, y, z'
loop_
 _atom_site_type_symbol
 _atom_site_label
 _atom_site_symmetry_multiplicity
 _atom_site_fract_x
 _atom_site_fract_y
 _atom_site_fract_z
 _atom_site_occupancy
  Na  Na0  1  0.93218931  0.62171734  0.77223095  1.0
  Na  Na1  1  0.93533087  0.37177012  0.06747358  1.0
  Na  Na2  1  0.73299945  0.71250360  0.47878946  1.0
  Na  Na3  1  0.60484804  0.43586007  0.10947076  1.0
  Cl  Cl4  1  0.34457781  0.04120019  0.00066589  1.0
  Cl  Cl5  1  0.84921983  0.43770553  0.90369926  1.0
  Cl  Cl6  1  0.60990329  0.06450417  0.88961047  1.0
  Cl  Cl7  1  0.21167105  0.43346464  0.20490147  1.0
