# generated using pymatgen
data_NaCl
_symmetry_space_group_name_H-M   'P 1'
_cell_length_a   4.27335961
_cell_length_b   4.27335961
_cell_length_c   4.27335961
_cell_angle_alpha   90.00000000
_cell_angle_beta   90.00000000
_cell_angle_gamma   90.00000000
_symmetry_Int_Tables_number   1
_chemical_formula_structural   NaCl
_chemical_formula_sum   'Na4 Cl4'
_cell_volume   78.03839392
_cell_formula_units_Z   4
loop_
 _symmetry_equiv_pos_site_id
 _symmetry_equiv_pos_as_xyz
  1  'x, y, z'
loop_
 _atom_site_type_symbol
 _atom_site_label
 _atom_site_symmetry_multiplicity
 _atom_site_fract_x
 _atom_site_fract_y
 _atom_site_fract_z
 _atom_site_occupancy
  Na  Na0  1  0.84605376  0.84605376  0.84605376  1.0
  Na  Na1  1  0.99069465  0.49069465  0.00930535  1.0
  Na  Na2  1  0.69018289  0.80981711  0.19018289  1.0
  Na  Na3  1  0.57224532  0.42775468  0.92775468  1.0
  Cl  Cl4  1  0.32730855  0.32730855  0.32730855  1.0
  Cl  Cl5  1  0.69874746  0.19874746  0.30125254  1.0
  Cl  Cl6  1  0.51605047  0.98394953  0.01605047  1.0
  Cl  Cl7  1  0.15132177  0.84867823  0.34867823  1.0
