# generated using pymatgen
data_NaCl
_symmetry_space_group_name_H-M   'P 1'
_cell_length_a   2.74172771
_cell_length_b   12.97132211
_cell_length_c   8.22251946
_cell_angle_alpha   90.00000000
_cell_angle_beta   90.00000000
_cell_angle_gamma   90.00000000
_symmetry_Int_Tables_number   1
_chemical_formula_structural   NaCl
_chemical_formula_sum   'Na4 Cl4'
_cell_volume   292.42431109
_cell_formula_units_Z   4
loop_
 _symmetry_equiv_pos_site_id
 _symmetry_equiv_pos_as_xyz
  1  'x, y, z'
loop_
 _atom_site_type_symbol
 _atom_site_label
 _atom_site_symmetry_multiplicity
 _atom_site_fract_x
 _atom_site_fract_y
 _atom_site_fract_z
 _atom_site_occupancy
  Na  Na0  1  0.00000000  0.57616221  0.73547177  1.0
  Na  Na1  1  0.00000000  0.27310380  0.89846689  1.0
  Na  Na2  1  0.50000000  0.44621919  0.07225242  1.0
  Na  Na3  1  0.50000000  0.29065866  0.13702535  1.0
  Cl  Cl4  1  0.00000000  0.80468479  0.28772482  1.0
  Cl  Cl5  1  0.00000000  0.51536238  0.93232013  1.0
  Cl  Cl6  1  0.50000000  0.73397146  0.52235066  1.0
  Cl  Cl7  1  0.50000000  0.44403670  0.35997639  1.0
