# generated using pymatgen
data_NaCl
_symmetry_space_group_name_H-M   'P 1'
_cell_length_a   4.27453702
_cell_length_b   4.27453702
_cell_length_c   4.27453702
_cell_angle_alpha   90.00000000
_cell_angle_beta   90.00000000
_cell_angle_gamma   90.00000000
_symmetry_Int_Tables_number   1
_chemical_formula_structural   NaCl
_chemical_formula_sum   'Na4 Cl4'
_cell_volume   78.10291588
_cell_formula_units_Z   4
loop_
 _symmetry_equiv_pos_site_id
 _symmetry_equiv_pos_as_xyz
  1  'x, y, z'
loop_
 _atom_site_type_symbol
 _atom_site_label
 _atom_site_symmetry_multiplicity
 _atom_site_fract_x
 _atom_site_fract_y
 _atom_site_fract_z
 _atom_site_occupancy
  Na  Na0  1  0.60265435  0.60265435  0.60265435  1.0
  Na  Na1  1  0.09586417  0.59586417  0.90413583  1.0
  Na  Na2  1  0.71959234  0.78040766  0.21959234  1.0
  Na  Na3  1  0.69999464  0.30000536  0.80000536  1.0
  Cl  Cl4  1  0.24579614  0.24579614  0.24579614  1.0
  Cl  Cl5  1  0.80021162  0.30021162  0.19978838  1.0
  Cl  Cl6  1  0.26236144  0.23763856  0.76236144  1.0
  Cl  Cl7  1  0.42010236  0.57989764  0.07989764  1.0
