# generated using pymatgen
data_NaCl
_symmetry_space_group_name_H-M   'P 1'
_cell_length_a   5.58765928
_cell_length_b   5.58765928
_cell_length_c   9.25902668
_cell_angle_alpha   90.00000000
_cell_angle_beta   90.00000000
_cell_angle_gamma   90.00000000
_symmetry_Int_Tables_number   1
_chemical_formula_structural   NaCl
_chemical_formula_sum   'Na4 Cl4'
_cell_volume   289.08474055
_cell_formula_units_Z   4
loop_
 _symmetry_equiv_pos_site_id
 _symmetry_equiv_pos_as_xyz
  1  'x, y, z'
loop_
 _atom_site_type_symbol
 _atom_site_label
 _atom_site_symmetry_multiplicity
 _atom_site_fract_x
 _atom_site_fract_y
 _atom_site_fract_z
 _atom_site_occupancy
  Na  Na0  1  0.62225850  0.54854946  0.47828193  1.0
  Na  Na1  1  0.47400750  0.22868863  0.00869741  1.0
  Na  Na2  1  0.98477243  0.51717398  0.04164587  1.0
  Na  Na3  1  0.34356739  0.46899887  0.57659714  1.0
  Cl  Cl4  1  0.31551105  0.77161494  0.19937367  1.0
  Cl  Cl5  1  0.35199031  0.74172384  0.02864885  1.0
  Cl  Cl6  1  0.68643067  0.90762261  0.35482384  1.0
  Cl  Cl7  1  0.12367083  0.34901537  0.13854754  1.0
