# generated using pymatgen
data_NaCl
_symmetry_space_group_name_H-M   'P 1'
_cell_length_a   7.02744938
_cell_length_b   10.68410172
_cell_length_c   11.89624280
_cell_angle_alpha   90.00000000
_cell_angle_beta   155.31401169
_cell_angle_gamma   90.00000000
_symmetry_Int_Tables_number   1
_chemical_formula_structural   NaCl
_chemical_formula_sum   'Na4 Cl4'
_cell_volume   373.03770193
_cell_formula_units_Z   4
loop_
 _symmetry_equiv_pos_site_id
 _symmetry_equiv_pos_as_xyz
  1  'x, y, z'
loop_
 _atom_site_type_symbol
 _atom_site_label
 _atom_site_symmetry_multiplicity
 _atom_site_fract_x
 _atom_site_fract_y
 _atom_site_fract_z
 _atom_site_occupancy
  Na  Na0  1  0.75255935  0.52112370  0.47718478  1.0
  Na  Na1  1  0.41897549  0.12605929  0.59937959  1.0
  Na  Na2  1  0.96215773  0.55599035  0.06828300  1.0
  Na  Na3  1  0.91757261  0.00413431  0.40860383  1.0
  Cl  Cl4  1  0.52695579  0.00000000  0.09210821  1.0
  Cl  Cl5  1  0.21929499  0.50000000  0.34700987  1.0
  Cl  Cl6  1  0.77934274  0.00000000  0.67226946  1.0
  Cl  Cl7  1  0.35306304  0.50000000  0.94642166  1.0
