# generated using pymatgen
data_NaCl
_symmetry_space_group_name_H-M   'P 1'
_cell_length_a   5.28275300
_cell_length_b   7.84066226
_cell_length_c   8.75578143
_cell_angle_alpha   90.00000000
_cell_angle_beta   90.00000000
_cell_angle_gamma   90.00000000
_symmetry_Int_Tables_number   1
_chemical_formula_structural   NaCl
_chemical_formula_sum   'Na4 Cl4'
_cell_volume   362.66693663
_cell_formula_units_Z   4
loop_
 _symmetry_equiv_pos_site_id
 _symmetry_equiv_pos_as_xyz
  1  'x, y, z'
loop_
 _atom_site_type_symbol
 _atom_site_label
 _atom_site_symmetry_multiplicity
 _atom_site_fract_x
 _atom_site_fract_y
 _atom_site_fract_z
 _atom_site_occupancy
  Na  Na0  1  0.98085037  0.65821137  0.71293061  1.0
  Na  Na1  1  0.43128927  0.38832054  0.04264091  1.0
  Na  Na2  1  0.70563962  0.91362402  0.07744162  1.0
  Na  Na3  1  0.46668465  0.15903814  0.30569013  1.0
  Cl  Cl4  1  0.27805049  0.05274161  0.19307622  1.0
  Cl  Cl5  1  0.32292117  0.39658595  0.86070110  1.0
  Cl  Cl6  1  0.87818155  0.54841990  0.60373447  1.0
  Cl  Cl7  1  0.75553004  0.04841731  0.29507385  1.0
