# generated using pymatgen
data_NaCl
_symmetry_space_group_name_H-M   'P 1'
_cell_length_a   3.14215640
_cell_length_b   11.18180328
_cell_length_c   5.69114078
_cell_angle_alpha   90.00000000
_cell_angle_beta   144.03034965
_cell_angle_gamma   90.00000000
_symmetry_Int_Tables_number   1
_chemical_formula_structural   NaCl
_chemical_formula_sum   'Na4 Cl4'
_cell_volume   117.44670894
_cell_formula_units_Z   4
loop_
 _symmetry_equiv_pos_site_id
 _symmetry_equiv_pos_as_xyz
  1  'x, y, z'
loop_
 _atom_site_type_symbol
 _atom_site_label
 _atom_site_symmetry_multiplicity
 _atom_site_fract_x
 _atom_site_fract_y
 _atom_site_fract_z
 _atom_site_occupancy
  Na  Na0  1  0.00000000  0.48488737  0.00000000  1.0
  Na  Na1  1  0.00000000  0.88987388  0.00000000  1.0
  Na  Na2  1  0.00000000  0.28433920  0.50000000  1.0
  Na  Na3  1  0.50000000  0.31614660  0.00000000  1.0
  Cl  Cl4  1  0.26210071  0.32839950  0.06772559  1.0
  Cl  Cl5  1  0.43120970  0.47458108  0.91410646  1.0
  Cl  Cl6  1  0.50164519  0.21006924  0.54293496  1.0
  Cl  Cl7  1  0.15883458  0.11590781  0.15941097  1.0
