# generated using pymatgen
data_NaCl
_symmetry_space_group_name_H-M   'P 1'
_cell_length_a   6.27054383
_cell_length_b   11.34674942
_cell_length_c   10.93636725
_cell_angle_alpha   90.00000000
_cell_angle_beta   150.47734218
_cell_angle_gamma   90.00000000
_symmetry_Int_Tables_number   1
_chemical_formula_structural   NaCl
_chemical_formula_sum   'Na4 Cl4'
_cell_volume   383.43521517
_cell_formula_units_Z   4
loop_
 _symmetry_equiv_pos_site_id
 _symmetry_equiv_pos_as_xyz
  1  'x, y, z'
loop_
 _atom_site_type_symbol
 _atom_site_label
 _atom_site_symmetry_multiplicity
 _atom_site_fract_x
 _atom_site_fract_y
 _atom_site_fract_z
 _atom_site_occupancy
  Na  Na0  1  0.86023578  0.60738729  0.46593307  1.0
  Na  Na1  1  0.58750209  0.30654727  0.56436093  1.0
  Na  Na2  1  0.36491933  0.52041735  0.23823679  1.0
  Na  Na3  1  0.77459473  0.82017527  0.68393167  1.0
  Cl  Cl4  1  0.30055306  0.79231718  0.10690480  1.0
  Cl  Cl5  1  0.14589639  0.80818858  0.79021870  1.0
  Cl  Cl6  1  0.71288280  0.24613420  0.47149533  1.0
  Cl  Cl7  1  0.06331190  0.69298974  0.14583741  1.0
