# generated using pymatgen
data_NaCl
_symmetry_space_group_name_H-M   'P 1'
_cell_length_a   7.74900885
_cell_length_b   7.74900885
_cell_length_c   5.99628405
_cell_angle_alpha   90.00000000
_cell_angle_beta   90.00000000
_cell_angle_gamma   90.00000000
_symmetry_Int_Tables_number   1
_chemical_formula_structural   NaCl
_chemical_formula_sum   'Na4 Cl4'
_cell_volume   360.05969678
_cell_formula_units_Z   4
loop_
 _symmetry_equiv_pos_site_id
 _symmetry_equiv_pos_as_xyz
  1  'x, y, z'
loop_
 _atom_site_type_symbol
 _atom_site_label
 _atom_site_symmetry_multiplicity
 _atom_site_fract_x
 _atom_site_fract_y
 _atom_site_fract_z
 _atom_site_occupancy
  Na  Na0  1  0.70791210  0.70791210  0.00000000  1.0
  Na  Na1  1  0.55230711  0.55230711  0.50000000  1.0
  Na  Na2  1  0.98579857  0.01420143  0.25000000  1.0
  Na  Na3  1  0.06356043  0.93643957  0.75000000  1.0
  Cl  Cl4  1  0.33327390  0.33327390  0.00000000  1.0
  Cl  Cl5  1  0.28668133  0.28668133  0.50000000  1.0
  Cl  Cl6  1  0.65027508  0.34972492  0.25000000  1.0
  Cl  Cl7  1  0.21352908  0.78647092  0.75000000  1.0
