# generated using pymatgen
data_NaCl
_symmetry_space_group_name_H-M   'P 1'
_cell_length_a   5.35951711
_cell_length_b   10.06515388
_cell_length_c   8.77648850
_cell_angle_alpha   90.00000000
_cell_angle_beta   142.64734669
_cell_angle_gamma   90.00000000
_symmetry_Int_Tables_number   1
_chemical_formula_structural   NaCl
_chemical_formula_sum   'Na4 Cl4'
_cell_volume   287.24639126
_cell_formula_units_Z   4
loop_
 _symmetry_equiv_pos_site_id
 _symmetry_equiv_pos_as_xyz
  1  'x, y, z'
loop_
 _atom_site_type_symbol
 _atom_site_label
 _atom_site_symmetry_multiplicity
 _atom_site_fract_x
 _atom_site_fract_y
 _atom_site_fract_z
 _atom_site_occupancy
  Na  Na0  1  0.91202499  0.73017124  0.70971903  1.0
  Na  Na1  1  0.55654589  0.38176654  0.07259377  1.0
  Na  Na2  1  0.74257430  0.72070886  0.26316781  1.0
  Na  Na3  1  0.62861962  0.48314508  0.23144540  1.0
  Cl  Cl4  1  0.25353854  0.09677328  0.10241127  1.0
  Cl  Cl5  1  0.67742449  0.45073947  0.89761756  1.0
  Cl  Cl6  1  0.91155771  0.03196585  0.55535671  1.0
  Cl  Cl7  1  0.15367576  0.93220628  0.35583941  1.0
