# generated using pymatgen
data_NaCl
_symmetry_space_group_name_H-M   'P 1'
_cell_length_a   6.45283313
_cell_length_b   6.45283313
_cell_length_c   8.42879584
_cell_angle_alpha   90.00000000
_cell_angle_beta   90.00000000
_cell_angle_gamma   90.00000000
_symmetry_Int_Tables_number   1
_chemical_formula_structural   NaCl
_chemical_formula_sum   'Na4 Cl4'
_cell_volume   350.96709697
_cell_formula_units_Z   4
loop_
 _symmetry_equiv_pos_site_id
 _symmetry_equiv_pos_as_xyz
  1  'x, y, z'
loop_
 _atom_site_type_symbol
 _atom_site_label
 _atom_site_symmetry_multiplicity
 _atom_site_fract_x
 _atom_site_fract_y
 _atom_site_fract_z
 _atom_site_occupancy
  Na  Na0  1  0.58734698  0.70990849  0.44167163  1.0
  Na  Na1  1  0.57971921  0.32944182  0.86919001  1.0
  Na  Na2  1  0.80714272  0.36277806  0.94035543  1.0
  Na  Na3  1  0.36143628  0.48867893  0.55667347  1.0
  Cl  Cl4  1  0.23946047  0.38426048  0.00113738  1.0
  Cl  Cl5  1  0.24923234  0.67979530  0.66425227  1.0
  Cl  Cl6  1  0.73202408  0.77023941  0.27385355  1.0
  Cl  Cl7  1  0.05381066  0.02288539  0.07442355  1.0
