# generated using pymatgen
data_NaCl
_symmetry_space_group_name_H-M   'P 1'
_cell_length_a   4.41227333
_cell_length_b   13.01019075
_cell_length_c   4.68484895
_cell_angle_alpha   90.00000000
_cell_angle_beta   90.00000000
_cell_angle_gamma   90.00000000
_symmetry_Int_Tables_number   1
_chemical_formula_structural   NaCl
_chemical_formula_sum   'Na4 Cl4'
_cell_volume   268.93149431
_cell_formula_units_Z   4
loop_
 _symmetry_equiv_pos_site_id
 _symmetry_equiv_pos_as_xyz
  1  'x, y, z'
loop_
 _atom_site_type_symbol
 _atom_site_label
 _atom_site_symmetry_multiplicity
 _atom_site_fract_x
 _atom_site_fract_y
 _atom_site_fract_z
 _atom_site_occupancy
  Na  Na0  1  0.94426728  0.53124733  0.65061555  1.0
  Na  Na1  1  0.71362195  0.20534087  0.07614945  1.0
  Na  Na2  1  0.98310986  0.87957861  0.10017200  1.0
  Na  Na3  1  0.20255542  0.39479975  0.98707696  1.0
  Cl  Cl4  1  0.16466533  0.73475997  0.17597317  1.0
  Cl  Cl5  1  0.32979891  0.57378661  0.52933998  1.0
  Cl  Cl6  1  0.92969233  0.78650414  0.59048692  1.0
  Cl  Cl7  1  0.57458760  0.08507151  0.41648318  1.0
