# generated using pymatgen
data_NaCl
_symmetry_space_group_name_H-M   'P 1'
_cell_length_a   6.34072155
_cell_length_b   13.50185246
_cell_length_c   9.87722798
_cell_angle_alpha   90.00000000
_cell_angle_beta   153.30081075
_cell_angle_gamma   90.00000000
_symmetry_Int_Tables_number   1
_chemical_formula_structural   NaCl
_chemical_formula_sum   'Na4 Cl4'
_cell_volume   379.93533073
_cell_formula_units_Z   4
loop_
 _symmetry_equiv_pos_site_id
 _symmetry_equiv_pos_as_xyz
  1  'x, y, z'
loop_
 _atom_site_type_symbol
 _atom_site_label
 _atom_site_symmetry_multiplicity
 _atom_site_fract_x
 _atom_site_fract_y
 _atom_site_fract_z
 _atom_site_occupancy
  Na  Na0  1  0.88104283  0.57436863  0.60659609  1.0
  Na  Na1  1  0.80212604  0.01585193  0.97713420  1.0
  Na  Na2  1  0.59583483  0.50174152  0.09073991  1.0
  Na  Na3  1  0.28180174  0.47190925  0.78098092  1.0
  Cl  Cl4  1  0.07378842  0.79066491  0.59120878  1.0
  Cl  Cl5  1  0.53635112  0.35888652  0.03146477  1.0
  Cl  Cl6  1  0.75343277  0.10566176  0.62392518  1.0
  Cl  Cl7  1  0.52774945  0.72056233  0.32164920  1.0
