# generated using pymatgen
data_NaCl
_symmetry_space_group_name_H-M   'P 1'
_cell_length_a   3.42545956
_cell_length_b   3.42545956
_cell_length_c   12.05076676
_cell_angle_alpha   90.00000000
_cell_angle_beta   90.00000000
_cell_angle_gamma   90.00000000
_symmetry_Int_Tables_number   1
_chemical_formula_structural   NaCl
_chemical_formula_sum   'Na4 Cl4'
_cell_volume   141.40096401
_cell_formula_units_Z   4
loop_
 _symmetry_equiv_pos_site_id
 _symmetry_equiv_pos_as_xyz
  1  'x, y, z'
loop_
 _atom_site_type_symbol
 _atom_site_label
 _atom_site_symmetry_multiplicity
 _atom_site_fract_x
 _atom_site_fract_y
 _atom_site_fract_z
 _atom_site_occupancy
  Na  Na0  1  0.89288065  0.53294142  0.43694504  1.0
  Na  Na1  1  0.00025093  0.12480182  0.75563155  1.0
  Na  Na2  1  0.47726452  0.55490857  0.26545310  1.0
  Na  Na3  1  0.29901625  0.77855395  0.55422223  1.0
  Cl  Cl4  1  0.11730138  0.66059145  0.22667060  1.0
  Cl  Cl5  1  0.37933972  0.99615793  0.97452326  1.0
  Cl  Cl6  1  0.74948506  0.94275344  0.06485767  1.0
  Cl  Cl7  1  0.24320216  0.56703241  0.67387947  1.0
