# generated using pymatgen
data_NaCl
_symmetry_space_group_name_H-M   'P 1'
_cell_length_a   5.71595472
_cell_length_b   5.71595472
_cell_length_c   9.84074711
_cell_angle_alpha   90.00000000
_cell_angle_beta   90.00000000
_cell_angle_gamma   90.00000000
_symmetry_Int_Tables_number   1
_chemical_formula_structural   NaCl
_chemical_formula_sum   'Na4 Cl4'
_cell_volume   321.51825115
_cell_formula_units_Z   4
loop_
 _symmetry_equiv_pos_site_id
 _symmetry_equiv_pos_as_xyz
  1  'x, y, z'
loop_
 _atom_site_type_symbol
 _atom_site_label
 _atom_site_symmetry_multiplicity
 _atom_site_fract_x
 _atom_site_fract_y
 _atom_site_fract_z
 _atom_site_occupancy
  Na  Na0  1  0.93100336  0.64034958  0.91798064  1.0
  Na  Na1  1  0.49199152  0.30839288  0.03471194  1.0
  Na  Na2  1  0.89627287  0.20798221  0.79168636  1.0
  Na  Na3  1  0.01995571  0.93307788  0.20616067  1.0
  Cl  Cl4  1  0.31884246  0.00119000  0.09408362  1.0
  Cl  Cl5  1  0.17227426  0.40234176  0.79785942  1.0
  Cl  Cl6  1  0.47085076  0.54771519  0.20507827  1.0
  Cl  Cl7  1  0.00006024  0.39856575  0.11247697  1.0
