# generated using pymatgen
data_NaCl
_symmetry_space_group_name_H-M   'P 1'
_cell_length_a   5.46256367
_cell_length_b   5.46256367
_cell_length_c   10.93309782
_cell_angle_alpha   90.00000000
_cell_angle_beta   90.00000000
_cell_angle_gamma   90.00000000
_symmetry_Int_Tables_number   1
_chemical_formula_structural   NaCl
_chemical_formula_sum   'Na4 Cl4'
_cell_volume   326.23928592
_cell_formula_units_Z   4
loop_
 _symmetry_equiv_pos_site_id
 _symmetry_equiv_pos_as_xyz
  1  'x, y, z'
loop_
 _atom_site_type_symbol
 _atom_site_label
 _atom_site_symmetry_multiplicity
 _atom_site_fract_x
 _atom_site_fract_y
 _atom_site_fract_z
 _atom_site_occupancy
  Na  Na0  1  0.95069134  0.57697841  0.72017825  1.0
  Na  Na1  1  0.47332924  0.34738720  0.05101336  1.0
  Na  Na2  1  0.87960162  0.27585628  0.28467398  1.0
  Na  Na3  1  0.00027519  0.99763281  0.37812310  1.0
  Cl  Cl4  1  0.33716603  0.10257013  0.05388397  1.0
  Cl  Cl5  1  0.28982122  0.45863360  0.90271011  1.0
  Cl  Cl6  1  0.43877283  0.45042769  0.77154289  1.0
  Cl  Cl7  1  0.01732004  0.28283295  0.61141390  1.0
