# generated using pymatgen
data_NaCl
_symmetry_space_group_name_H-M   'P 1'
_cell_length_a   3.38242801
_cell_length_b   10.14489801
_cell_length_c   12.59648834
_cell_angle_alpha   90.00000000
_cell_angle_beta   154.00674900
_cell_angle_gamma   90.00000000
_symmetry_Int_Tables_number   1
_chemical_formula_structural   NaCl
_chemical_formula_sum   'Na4 Cl4'
_cell_volume   189.43612251
_cell_formula_units_Z   4
loop_
 _symmetry_equiv_pos_site_id
 _symmetry_equiv_pos_as_xyz
  1  'x, y, z'
loop_
 _atom_site_type_symbol
 _atom_site_label
 _atom_site_symmetry_multiplicity
 _atom_site_fract_x
 _atom_site_fract_y
 _atom_site_fract_z
 _atom_site_occupancy
  Na  Na0  1  0.87106004  0.49672716  0.48987828  1.0
  Na  Na1  1  0.88053873  0.28001564  0.86965936  1.0
  Na  Na2  1  0.52253666  0.55047201  0.03326529  1.0
  Na  Na3  1  0.22425368  0.50811782  0.81763397  1.0
  Cl  Cl4  1  0.26348581  0.89678582  0.48573380  1.0
  Cl  Cl5  1  0.48713851  0.99980452  0.88130848  1.0
  Cl  Cl6  1  0.74195271  0.07048246  0.54086201  1.0
  Cl  Cl7  1  0.43994729  0.70593390  0.33004769  1.0
