# generated using pymatgen
data_NaCl
_symmetry_space_group_name_H-M   'P 1'
_cell_length_a   6.59446716
_cell_length_b   10.08772227
_cell_length_c   7.83914860
_cell_angle_alpha   90.00000000
_cell_angle_beta   139.87568468
_cell_angle_gamma   90.00000000
_symmetry_Int_Tables_number   1
_chemical_formula_structural   NaCl
_chemical_formula_sum   'Na4 Cl4'
_cell_volume   336.06998977
_cell_formula_units_Z   4
loop_
 _symmetry_equiv_pos_site_id
 _symmetry_equiv_pos_as_xyz
  1  'x, y, z'
loop_
 _atom_site_type_symbol
 _atom_site_label
 _atom_site_symmetry_multiplicity
 _atom_site_fract_x
 _atom_site_fract_y
 _atom_site_fract_z
 _atom_site_occupancy
  Na  Na0  1  0.88981006  0.51217763  0.87209509  1.0
  Na  Na1  1  0.43219251  0.20016085  0.42264852  1.0
  Na  Na2  1  0.22732878  0.20801034  0.05846878  1.0
  Na  Na3  1  0.95157937  0.60419734  0.32341945  1.0
  Cl  Cl4  1  0.31274205  0.03427373  0.09471246  1.0
  Cl  Cl5  1  0.31246663  0.11452119  0.66883458  1.0
  Cl  Cl6  1  0.58352715  0.41988012  0.51391194  1.0
  Cl  Cl7  1  0.33699497  0.54919729  0.18180098  1.0
