# generated using pymatgen
data_NaCl
_symmetry_space_group_name_H-M   'P 1'
_cell_length_a   4.32067657
_cell_length_b   4.32067657
_cell_length_c   4.32067657
_cell_angle_alpha   90.00000000
_cell_angle_beta   90.00000000
_cell_angle_gamma   90.00000000
_symmetry_Int_Tables_number   1
_chemical_formula_structural   NaCl
_chemical_formula_sum   'Na4 Cl4'
_cell_volume   80.65945319
_cell_formula_units_Z   4
loop_
 _symmetry_equiv_pos_site_id
 _symmetry_equiv_pos_as_xyz
  1  'x, y, z'
loop_
 _atom_site_type_symbol
 _atom_site_label
 _atom_site_symmetry_multiplicity
 _atom_site_fract_x
 _atom_site_fract_y
 _atom_site_fract_z
 _atom_site_occupancy
  Na  Na0  1  0.76334542  0.76334542  0.76334542  1.0
  Na  Na1  1  0.87451940  0.37451940  0.12548060  1.0
  Na  Na2  1  0.65026471  0.84973529  0.15026471  1.0
  Na  Na3  1  0.95107211  0.04892789  0.54892789  1.0
  Cl  Cl4  1  0.56343345  0.56343345  0.56343345  1.0
  Cl  Cl5  1  0.25401727  0.75401727  0.74598273  1.0
  Cl  Cl6  1  0.40521938  0.09478062  0.90521938  1.0
  Cl  Cl7  1  0.20108659  0.79891341  0.29891341  1.0
