# generated using pymatgen
data_NaCl
_symmetry_space_group_name_H-M   'P 1'
_cell_length_a   2.01949084
_cell_length_b   13.11161443
_cell_length_c   10.49492566
_cell_angle_alpha   90.00000000
_cell_angle_beta   90.00000000
_cell_angle_gamma   90.00000000
_symmetry_Int_Tables_number   1
_chemical_formula_structural   NaCl
_chemical_formula_sum   'Na4 Cl4'
_cell_volume   277.89288265
_cell_formula_units_Z   4
loop_
 _symmetry_equiv_pos_site_id
 _symmetry_equiv_pos_as_xyz
  1  'x, y, z'
loop_
 _atom_site_type_symbol
 _atom_site_label
 _atom_site_symmetry_multiplicity
 _atom_site_fract_x
 _atom_site_fract_y
 _atom_site_fract_z
 _atom_site_occupancy
  Na  Na0  1  0.75889245  0.58217418  0.57537543  1.0
  Na  Na1  1  0.64522588  0.14093563  0.89781629  1.0
  Na  Na2  1  0.45915901  0.09879679  0.40266261  1.0
  Na  Na3  1  0.62407818  0.48176493  0.52642819  1.0
  Cl  Cl4  1  0.14989697  0.93674551  0.26840166  1.0
  Cl  Cl5  1  0.01285502  0.92027934  0.96426692  1.0
  Cl  Cl6  1  0.20749413  0.58906870  0.85341690  1.0
  Cl  Cl7  1  0.96909099  0.18803352  0.23727668  1.0
