# generated using pymatgen
data_NaCl
_symmetry_space_group_name_H-M   'P 1'
_cell_length_a   2.00574317
_cell_length_b   14.63766579
_cell_length_c   6.07223243
_cell_angle_alpha   90.00000000
_cell_angle_beta   128.29847699
_cell_angle_gamma   90.00000000
_symmetry_Int_Tables_number   1
_chemical_formula_structural   NaCl
_chemical_formula_sum   'Na4 Cl4'
_cell_volume   139.91058447
_cell_formula_units_Z   4
loop_
 _symmetry_equiv_pos_site_id
 _symmetry_equiv_pos_as_xyz
  1  'x, y, z'
loop_
 _atom_site_type_symbol
 _atom_site_label
 _atom_site_symmetry_multiplicity
 _atom_site_fract_x
 _atom_site_fract_y
 _atom_site_fract_z
 _atom_site_occupancy
  Na  Na0  1  0.93169555  0.45054026  0.65809416  1.0
  Na  Na1  1  0.60102606  0.21551062  0.91564373  1.0
  Na  Na2  1  0.56970421  0.36358018  0.02313166  1.0
  Na  Na3  1  0.02518364  0.79733267  0.10559730  1.0
  Cl  Cl4  1  0.17469196  0.89954628  0.02809064  1.0
  Cl  Cl5  1  0.75348351  0.52746266  0.89420530  1.0
  Cl  Cl6  1  0.36937012  0.24658246  0.65454620  1.0
  Cl  Cl7  1  0.61517447  0.96341440  0.41607952  1.0
