# generated using pymatgen
data_NaCl
_symmetry_space_group_name_H-M   'P 1'
_cell_length_a   5.33147866
_cell_length_b   9.89647537
_cell_length_c   7.77613843
_cell_angle_alpha   90.00000000
_cell_angle_beta   90.00000000
_cell_angle_gamma   90.00000000
_symmetry_Int_Tables_number   1
_chemical_formula_structural   NaCl
_chemical_formula_sum   'Na4 Cl4'
_cell_volume   410.29120413
_cell_formula_units_Z   4
loop_
 _symmetry_equiv_pos_site_id
 _symmetry_equiv_pos_as_xyz
  1  'x, y, z'
loop_
 _atom_site_type_symbol
 _atom_site_label
 _atom_site_symmetry_multiplicity
 _atom_site_fract_x
 _atom_site_fract_y
 _atom_site_fract_z
 _atom_site_occupancy
  Na  Na0  1  0.71304237  0.50750514  0.26229434  1.0
  Na  Na1  1  0.39099152  0.19586262  0.03168263  1.0
  Na  Na2  1  0.95620651  0.69037969  0.10142710  1.0
  Na  Na3  1  0.91232007  0.29750861  0.83654165  1.0
  Cl  Cl4  1  0.34509845  0.76693385  0.00042342  1.0
  Cl  Cl5  1  0.24270053  0.81944333  0.94982138  1.0
  Cl  Cl6  1  0.33039212  0.70069199  0.60036663  1.0
  Cl  Cl7  1  0.70918768  0.05066674  0.26162927  1.0
