# generated using pymatgen
data_NaCl
_symmetry_space_group_name_H-M   'P 1'
_cell_length_a   4.40279659
_cell_length_b   9.09218203
_cell_length_c   9.09459204
_cell_angle_alpha   90.00000000
_cell_angle_beta   127.87152413
_cell_angle_gamma   90.00000000
_symmetry_Int_Tables_number   1
_chemical_formula_structural   NaCl
_chemical_formula_sum   'Na4 Cl4'
_cell_volume   287.38969623
_cell_formula_units_Z   4
loop_
 _symmetry_equiv_pos_site_id
 _symmetry_equiv_pos_as_xyz
  1  'x, y, z'
loop_
 _atom_site_type_symbol
 _atom_site_label
 _atom_site_symmetry_multiplicity
 _atom_site_fract_x
 _atom_site_fract_y
 _atom_site_fract_z
 _atom_site_occupancy
  Na  Na0  1  0.85340116  0.52894837  0.75338934  1.0
  Na  Na1  1  0.58489792  0.44795896  0.12179018  1.0
  Na  Na2  1  0.84495659  0.68268522  0.31972033  1.0
  Na  Na3  1  0.50002479  0.35202118  0.40515510  1.0
  Cl  Cl4  1  0.39125074  0.22458074  0.06267022  1.0
  Cl  Cl5  1  0.78088373  0.45027146  0.84474666  1.0
  Cl  Cl6  1  0.92920986  0.11596659  0.45387564  1.0
  Cl  Cl7  1  0.08538536  0.83587122  0.30186246  1.0
