# generated using pymatgen
data_NaCl
_symmetry_space_group_name_H-M   'P 1'
_cell_length_a   7.47496464
_cell_length_b   9.07559433
_cell_length_c   9.24622926
_cell_angle_alpha   90.00000000
_cell_angle_beta   159.89976242
_cell_angle_gamma   90.00000000
_symmetry_Int_Tables_number   1
_chemical_formula_structural   NaCl
_chemical_formula_sum   'Na4 Cl4'
_cell_volume   215.56705869
_cell_formula_units_Z   4
loop_
 _symmetry_equiv_pos_site_id
 _symmetry_equiv_pos_as_xyz
  1  'x, y, z'
loop_
 _atom_site_type_symbol
 _atom_site_label
 _atom_site_symmetry_multiplicity
 _atom_site_fract_x
 _atom_site_fract_y
 _atom_site_fract_z
 _atom_site_occupancy
  Na  Na0  1  0.55518118  0.70777997  0.27720844  1.0
  Na  Na1  1  0.45035585  0.48295555  0.01094659  1.0
  Na  Na2  1  0.85086960  0.76646638  0.27586300  1.0
  Na  Na3  1  0.11861538  0.19692694  0.78712261  1.0
  Cl  Cl4  1  0.28160036  0.43454906  0.00212725  1.0
  Cl  Cl5  1  0.74608805  0.80812910  0.64028943  1.0
  Cl  Cl6  1  0.24270527  0.83223835  0.42668105  1.0
  Cl  Cl7  1  0.28234906  0.41079297  0.25376273  1.0
