# generated using pymatgen
data_NaCl
_symmetry_space_group_name_H-M   'P 1'
_cell_length_a   5.96656223
_cell_length_b   5.96656223
_cell_length_c   5.96656223
_cell_angle_alpha   90.00000000
_cell_angle_beta   90.00000000
_cell_angle_gamma   90.00000000
_symmetry_Int_Tables_number   1
_chemical_formula_structural   NaCl
_chemical_formula_sum   'Na4 Cl4'
_cell_volume   212.40880897
_cell_formula_units_Z   4
loop_
 _symmetry_equiv_pos_site_id
 _symmetry_equiv_pos_as_xyz
  1  'x, y, z'
loop_
 _atom_site_type_symbol
 _atom_site_label
 _atom_site_symmetry_multiplicity
 _atom_site_fract_x
 _atom_site_fract_y
 _atom_site_fract_z
 _atom_site_occupancy
  Na  Na0  1  0.90495395  0.90495395  0.90495395  1.0
  Na  Na1  1  0.97269422  0.47269422  0.02730578  1.0
  Na  Na2  1  0.69313836  0.80686164  0.19313836  1.0
  Na  Na3  1  0.66349697  0.33650303  0.83650303  1.0
  Cl  Cl4  1  0.28512330  0.28512330  0.28512330  1.0
  Cl  Cl5  1  0.77463692  0.27463692  0.22536308  1.0
  Cl  Cl6  1  0.50966822  0.99033178  0.00966822  1.0
  Cl  Cl7  1  0.22496250  0.77503750  0.27503750  1.0
