# generated using pymatgen
data_NaCl
_symmetry_space_group_name_H-M   'P 1'
_cell_length_a   5.39100290
_cell_length_b   5.39100290
_cell_length_c   9.19474058
_cell_angle_alpha   90.00000000
_cell_angle_beta   90.00000000
_cell_angle_gamma   90.00000000
_symmetry_Int_Tables_number   1
_chemical_formula_structural   NaCl
_chemical_formula_sum   'Na4 Cl4'
_cell_volume   267.22593880
_cell_formula_units_Z   4
loop_
 _symmetry_equiv_pos_site_id
 _symmetry_equiv_pos_as_xyz
  1  'x, y, z'
loop_
 _atom_site_type_symbol
 _atom_site_label
 _atom_site_symmetry_multiplicity
 _atom_site_fract_x
 _atom_site_fract_y
 _atom_site_fract_z
 _atom_site_occupancy
  Na  Na0  1  0.96550742  0.59260157  0.77525905  1.0
  Na  Na1  1  0.51838325  0.38953633  0.08686000  1.0
  Na  Na2  1  0.85936087  0.24323913  0.76797133  1.0
  Na  Na3  1  0.04878277  0.99887225  0.95423138  1.0
  Cl  Cl4  1  0.34402872  0.04874134  0.10550502  1.0
  Cl  Cl5  1  0.21841169  0.35567007  0.76557340  1.0
  Cl  Cl6  1  0.44260027  0.43721100  0.24598436  1.0
  Cl  Cl7  1  0.04430166  0.29914094  0.04618434  1.0
