# generated using pymatgen
data_NaCl
_symmetry_space_group_name_H-M   'P 1'
_cell_length_a   5.30259641
_cell_length_b   8.59183682
_cell_length_c   9.18634682
_cell_angle_alpha   90.00000000
_cell_angle_beta   130.67083022
_cell_angle_gamma   90.00000000
_symmetry_Int_Tables_number   1
_chemical_formula_structural   NaCl
_chemical_formula_sum   'Na4 Cl4'
_cell_volume   317.43417306
_cell_formula_units_Z   4
loop_
 _symmetry_equiv_pos_site_id
 _symmetry_equiv_pos_as_xyz
  1  'x, y, z'
loop_
 _atom_site_type_symbol
 _atom_site_label
 _atom_site_symmetry_multiplicity
 _atom_site_fract_x
 _atom_site_fract_y
 _atom_site_fract_z
 _atom_site_occupancy
  Na  Na0  1  0.91492998  0.57615144  0.78594614  1.0
  Na  Na1  1  0.45045790  0.39561329  0.03776218  1.0
  Na  Na2  1  0.76860728  0.62284906  0.02099987  1.0
  Na  Na3  1  0.53539172  0.49796074  0.24780359  1.0
  Cl  Cl4  1  0.27343855  0.10051503  0.15141140  1.0
  Cl  Cl5  1  0.69489775  0.46254078  0.81386474  1.0
  Cl  Cl6  1  0.90920617  0.95362644  0.45459683  1.0
  Cl  Cl7  1  0.07672124  0.98528008  0.35255831  1.0
