# generated using pymatgen
data_NaCl
_symmetry_space_group_name_H-M   'P 1'
_cell_length_a   5.33198685
_cell_length_b   8.66679048
_cell_length_c   8.40312232
_cell_angle_alpha   90.00000000
_cell_angle_beta   90.00000000
_cell_angle_gamma   90.00000000
_symmetry_Int_Tables_number   1
_chemical_formula_structural   NaCl
_chemical_formula_sum   'Na4 Cl4'
_cell_volume   388.31847431
_cell_formula_units_Z   4
loop_
 _symmetry_equiv_pos_site_id
 _symmetry_equiv_pos_as_xyz
  1  'x, y, z'
loop_
 _atom_site_type_symbol
 _atom_site_label
 _atom_site_symmetry_multiplicity
 _atom_site_fract_x
 _atom_site_fract_y
 _atom_site_fract_z
 _atom_site_occupancy
  Na  Na0  1  0.88820223  0.56599273  0.82958295  1.0
  Na  Na1  1  0.38762708  0.33528869  0.07638353  1.0
  Na  Na2  1  0.58124956  0.92052053  0.00055829  1.0
  Na  Na3  1  0.48254214  0.13518410  0.17268826  1.0
  Cl  Cl4  1  0.27420482  0.00115346  0.08186130  1.0
  Cl  Cl5  1  0.33670278  0.28819254  0.83705442  1.0
  Cl  Cl6  1  0.92704962  0.48523231  0.56634774  1.0
  Cl  Cl7  1  0.81889317  0.56561936  0.37334648  1.0
