# generated using pymatgen
data_NaCl
_symmetry_space_group_name_H-M   'P 1'
_cell_length_a   4.43959346
_cell_length_b   4.43959346
_cell_length_c   4.43959346
_cell_angle_alpha   90.00000000
_cell_angle_beta   90.00000000
_cell_angle_gamma   90.00000000
_symmetry_Int_Tables_number   1
_chemical_formula_structural   NaCl
_chemical_formula_sum   'Na4 Cl4'
_cell_volume   87.50434310
_cell_formula_units_Z   4
loop_
 _symmetry_equiv_pos_site_id
 _symmetry_equiv_pos_as_xyz
  1  'x, y, z'
loop_
 _atom_site_type_symbol
 _atom_site_label
 _atom_site_symmetry_multiplicity
 _atom_site_fract_x
 _atom_site_fract_y
 _atom_site_fract_z
 _atom_site_occupancy
  Na  Na0  1  0.30131675  0.30131675  0.30131675  1.0
  Na  Na1  1  0.89520337  0.39520337  0.10479663  1.0
  Na  Na2  1  0.89503584  0.60496416  0.39503584  1.0
  Na  Na3  1  0.85865055  0.14134945  0.64134945  1.0
  Cl  Cl4  1  0.64811310  0.64811310  0.64811310  1.0
  Cl  Cl5  1  0.09518530  0.59518530  0.90481470  1.0
  Cl  Cl6  1  0.15700190  0.34299810  0.65700190  1.0
  Cl  Cl7  1  0.15536153  0.84463847  0.34463847  1.0
