# generated using pymatgen
data_NaCl
_symmetry_space_group_name_H-M   'P 1'
_cell_length_a   4.51169079
_cell_length_b   4.51169079
_cell_length_c   4.51169079
_cell_angle_alpha   90.00000000
_cell_angle_beta   90.00000000
_cell_angle_gamma   90.00000000
_symmetry_Int_Tables_number   1
_chemical_formula_structural   NaCl
_chemical_formula_sum   'Na4 Cl4'
_cell_volume   91.83706220
_cell_formula_units_Z   4
loop_
 _symmetry_equiv_pos_site_id
 _symmetry_equiv_pos_as_xyz
  1  'x, y, z'
loop_
 _atom_site_type_symbol
 _atom_site_label
 _atom_site_symmetry_multiplicity
 _atom_site_fract_x
 _atom_site_fract_y
 _atom_site_fract_z
 _atom_site_occupancy
  Na  Na0  1  0.18277177  0.18277177  0.18277177  1.0
  Na  Na1  1  0.09731469  0.59731469  0.90268531  1.0
  Na  Na2  1  0.24850840  0.25149160  0.74850840  1.0
  Na  Na3  1  0.10768214  0.89231786  0.39231786  1.0
  Cl  Cl4  1  0.46977735  0.46977735  0.46977735  1.0
  Cl  Cl5  1  0.34163852  0.84163852  0.65836148  1.0
  Cl  Cl6  1  0.03679323  0.46320677  0.53679323  1.0
  Cl  Cl7  1  0.29017261  0.70982739  0.20982739  1.0
