# generated using pymatgen
data_NaCl
_symmetry_space_group_name_H-M   'P 1'
_cell_length_a   4.48653625
_cell_length_b   4.48653625
_cell_length_c   15.16117862
_cell_angle_alpha   90.00000000
_cell_angle_beta   90.00000000
_cell_angle_gamma   90.00000000
_symmetry_Int_Tables_number   1
_chemical_formula_structural   NaCl
_chemical_formula_sum   'Na4 Cl4'
_cell_volume   305.17947849
_cell_formula_units_Z   4
loop_
 _symmetry_equiv_pos_site_id
 _symmetry_equiv_pos_as_xyz
  1  'x, y, z'
loop_
 _atom_site_type_symbol
 _atom_site_label
 _atom_site_symmetry_multiplicity
 _atom_site_fract_x
 _atom_site_fract_y
 _atom_site_fract_z
 _atom_site_occupancy
  Na  Na0  1  0.37396973  0.44577987  0.85809850  1.0
  Na  Na1  1  0.44017909  0.81413243  0.47869351  1.0
  Na  Na2  1  0.58174659  0.12127637  0.24693798  1.0
  Na  Na3  1  0.21393048  0.46814049  0.01333665  1.0
  Cl  Cl4  1  0.50779163  0.36268356  0.03011473  1.0
  Cl  Cl5  1  0.63854393  0.76015515  0.09312755  1.0
  Cl  Cl6  1  0.38421231  0.10900098  0.14291079  1.0
  Cl  Cl7  1  0.32939937  0.14663659  0.65074294  1.0
