# generated using pymatgen
data_NaCl
_symmetry_space_group_name_H-M   'P 1'
_cell_length_a   6.43494193
_cell_length_b   6.43494193
_cell_length_c   6.43494193
_cell_angle_alpha   90.00000000
_cell_angle_beta   90.00000000
_cell_angle_gamma   90.00000000
_symmetry_Int_Tables_number   1
_chemical_formula_structural   NaCl
_chemical_formula_sum   'Na4 Cl4'
_cell_volume   266.46114904
_cell_formula_units_Z   4
loop_
 _symmetry_equiv_pos_site_id
 _symmetry_equiv_pos_as_xyz
  1  'x, y, z'
loop_
 _atom_site_type_symbol
 _atom_site_label
 _atom_site_symmetry_multiplicity
 _atom_site_fract_x
 _atom_site_fract_y
 _atom_site_fract_z
 _atom_site_occupancy
  Na  Na0  1  0.61130761  0.61130761  0.61130761  1.0
  Na  Na1  1  0.78335763  0.28335763  0.21664237  1.0
  Na  Na2  1  0.95280451  0.54719549  0.45280451  1.0
  Na  Na3  1  0.95669832  0.04330168  0.54330168  1.0
  Cl  Cl4  1  0.43961705  0.43961705  0.43961705  1.0
  Cl  Cl5  1  0.26178336  0.76178336  0.73821664  1.0
  Cl  Cl6  1  0.04999050  0.45000950  0.54999050  1.0
  Cl  Cl7  1  0.21647670  0.78352330  0.28352330  1.0
