# generated using pymatgen
data_NaCl
_symmetry_space_group_name_H-M   'P 1'
_cell_length_a   2.52741657
_cell_length_b   10.30586610
_cell_length_c   13.53862758
_cell_angle_alpha   90.00000000
_cell_angle_beta   78.08486809
_cell_angle_gamma   90.00000000
_symmetry_Int_Tables_number   1
_chemical_formula_structural   NaCl
_chemical_formula_sum   'Na4 Cl4'
_cell_volume   345.04568231
_cell_formula_units_Z   4
loop_
 _symmetry_equiv_pos_site_id
 _symmetry_equiv_pos_as_xyz
  1  'x, y, z'
loop_
 _atom_site_type_symbol
 _atom_site_label
 _atom_site_symmetry_multiplicity
 _atom_site_fract_x
 _atom_site_fract_y
 _atom_site_fract_z
 _atom_site_occupancy
  Na  Na0  1  0.69464184  0.69889320  0.73382258  1.0
  Na  Na1  1  0.58992667  0.80260930  0.95868410  1.0
  Na  Na2  1  0.04724375  0.79211795  0.19080557  1.0
  Na  Na3  1  0.98054391  0.47974474  0.05392323  1.0
  Cl  Cl4  1  0.41866262  0.97527678  0.05327335  1.0
  Cl  Cl5  1  0.82787386  0.91609170  0.21623271  1.0
  Cl  Cl6  1  0.42182264  0.52596905  0.59891545  1.0
  Cl  Cl7  1  0.47110702  0.21368837  0.43067636  1.0
