# generated using pymatgen
data_NaCl
_symmetry_space_group_name_H-M   'P 1'
_cell_length_a   5.00188727
_cell_length_b   5.00188727
_cell_length_c   14.63765422
_cell_angle_alpha   90.00000000
_cell_angle_beta   90.00000000
_cell_angle_gamma   90.00000000
_symmetry_Int_Tables_number   1
_chemical_formula_structural   NaCl
_chemical_formula_sum   'Na4 Cl4'
_cell_volume   366.21765969
_cell_formula_units_Z   4
loop_
 _symmetry_equiv_pos_site_id
 _symmetry_equiv_pos_as_xyz
  1  'x, y, z'
loop_
 _atom_site_type_symbol
 _atom_site_label
 _atom_site_symmetry_multiplicity
 _atom_site_fract_x
 _atom_site_fract_y
 _atom_site_fract_z
 _atom_site_occupancy
  Na  Na0  1  0.55944146  0.00000000  0.55008354  1.0
  Na  Na1  1  0.12291300  0.00000000  0.13457771  1.0
  Na  Na2  1  0.00000000  0.37065598  0.05484264  1.0
  Na  Na3  1  0.00000000  0.52429966  0.89668878  1.0
  Cl  Cl4  1  0.32575941  0.50000000  0.30512968  1.0
  Cl  Cl5  1  0.48136718  0.50000000  0.50671712  1.0
  Cl  Cl6  1  0.50000000  0.03759615  0.72860051  1.0
  Cl  Cl7  1  0.50000000  0.45507442  0.28830910  1.0
