# generated using pymatgen
data_NaCl
_symmetry_space_group_name_H-M   'P 1'
_cell_length_a   5.35146045
_cell_length_b   5.35146045
_cell_length_c   5.35146045
_cell_angle_alpha   90.00000000
_cell_angle_beta   90.00000000
_cell_angle_gamma   90.00000000
_symmetry_Int_Tables_number   1
_chemical_formula_structural   NaCl
_chemical_formula_sum   'Na4 Cl4'
_cell_volume   153.25581443
_cell_formula_units_Z   4
loop_
 _symmetry_equiv_pos_site_id
 _symmetry_equiv_pos_as_xyz
  1  'x, y, z'
loop_
 _atom_site_type_symbol
 _atom_site_label
 _atom_site_symmetry_multiplicity
 _atom_site_fract_x
 _atom_site_fract_y
 _atom_site_fract_z
 _atom_site_occupancy
  Na  Na0  1  0.43634741  0.43634741  0.43634741  1.0
  Na  Na1  1  0.87399714  0.37399714  0.12600286  1.0
  Na  Na2  1  0.43938459  0.06061541  0.93938459  1.0
  Na  Na3  1  0.93991740  0.06008260  0.56008260  1.0
  Cl  Cl4  1  0.30217351  0.30217351  0.30217351  1.0
  Cl  Cl5  1  0.43076067  0.93076067  0.56923933  1.0
  Cl  Cl6  1  0.65742144  0.84257856  0.15742144  1.0
  Cl  Cl7  1  0.08120082  0.91879918  0.41879918  1.0
