# generated using pymatgen
data_NaCl
_symmetry_space_group_name_H-M   'P 1'
_cell_length_a   6.35070133
_cell_length_b   6.35070133
_cell_length_c   6.35070133
_cell_angle_alpha   90.00000000
_cell_angle_beta   90.00000000
_cell_angle_gamma   90.00000000
_symmetry_Int_Tables_number   1
_chemical_formula_structural   NaCl
_chemical_formula_sum   'Na4 Cl4'
_cell_volume   256.13272251
_cell_formula_units_Z   4
loop_
 _symmetry_equiv_pos_site_id
 _symmetry_equiv_pos_as_xyz
  1  'x, y, z'
loop_
 _atom_site_type_symbol
 _atom_site_label
 _atom_site_symmetry_multiplicity
 _atom_site_fract_x
 _atom_site_fract_y
 _atom_site_fract_z
 _atom_site_occupancy
  Na  Na0  1  0.26469575  0.26469575  0.26469575  1.0
  Na  Na1  1  0.96315615  0.46315615  0.03684385  1.0
  Na  Na2  1  0.79034166  0.70965834  0.29034166  1.0
  Na  Na3  1  0.93600123  0.06399877  0.56399877  1.0
  Cl  Cl4  1  0.54530983  0.54530983  0.54530983  1.0
  Cl  Cl5  1  0.39357801  0.89357801  0.60642199  1.0
  Cl  Cl6  1  0.09933608  0.40066392  0.59933608  1.0
  Cl  Cl7  1  0.22258699  0.77741301  0.27741301  1.0
