# generated using pymatgen
data_NaCl
_symmetry_space_group_name_H-M   'P 1'
_cell_length_a   4.71997831
_cell_length_b   11.91009593
_cell_length_c   4.57402628
_cell_angle_alpha   90.00000000
_cell_angle_beta   130.19951715
_cell_angle_gamma   90.00000000
_symmetry_Int_Tables_number   1
_chemical_formula_structural   NaCl
_chemical_formula_sum   'Na4 Cl4'
_cell_volume   196.39679973
_cell_formula_units_Z   4
loop_
 _symmetry_equiv_pos_site_id
 _symmetry_equiv_pos_as_xyz
  1  'x, y, z'
loop_
 _atom_site_type_symbol
 _atom_site_label
 _atom_site_symmetry_multiplicity
 _atom_site_fract_x
 _atom_site_fract_y
 _atom_site_fract_z
 _atom_site_occupancy
  Na  Na0  1  0.32232488  0.99906601  0.89917279  1.0
  Na  Na1  1  0.37420490  0.65930633  0.08279796  1.0
  Na  Na2  1  0.10427678  0.38415704  0.60962292  1.0
  Na  Na3  1  0.89248561  0.87318977  0.11062107  1.0
  Cl  Cl4  1  0.96155232  0.73302886  0.78200280  1.0
  Cl  Cl5  1  0.02475418  0.06259150  0.25919587  1.0
  Cl  Cl6  1  0.62269010  0.79638433  0.89737946  1.0
  Cl  Cl7  1  0.81971396  0.33893712  0.48548041  1.0
