# generated using pymatgen
data_NaCl
_symmetry_space_group_name_H-M   'P 1'
_cell_length_a   7.44089450
_cell_length_b   14.72769189
_cell_length_c   3.68401365
_cell_angle_alpha   90.00000000
_cell_angle_beta   90.00000000
_cell_angle_gamma   90.00000000
_symmetry_Int_Tables_number   1
_chemical_formula_structural   NaCl
_chemical_formula_sum   'Na4 Cl4'
_cell_volume   403.72074649
_cell_formula_units_Z   4
loop_
 _symmetry_equiv_pos_site_id
 _symmetry_equiv_pos_as_xyz
  1  'x, y, z'
loop_
 _atom_site_type_symbol
 _atom_site_label
 _atom_site_symmetry_multiplicity
 _atom_site_fract_x
 _atom_site_fract_y
 _atom_site_fract_z
 _atom_site_occupancy
  Na  Na0  1  0.00000000  0.96944588  0.96545595  1.0
  Na  Na1  1  0.00000000  0.57566709  0.48103676  1.0
  Na  Na2  1  0.50000000  0.91987511  0.20945589  1.0
  Na  Na3  1  0.50000000  0.23529669  0.86841496  1.0
  Cl  Cl4  1  0.00000000  0.81972827  0.85124507  1.0
  Cl  Cl5  1  0.00000000  0.79736112  0.28085070  1.0
  Cl  Cl6  1  0.50000000  0.02878566  0.08939315  1.0
  Cl  Cl7  1  0.50000000  0.71509737  0.31350720  1.0
