# generated using pymatgen
data_NaCl
_symmetry_space_group_name_H-M   'P 1'
_cell_length_a   4.75354126
_cell_length_b   6.95145635
_cell_length_c   7.45585371
_cell_angle_alpha   90.00000000
_cell_angle_beta   39.52449235
_cell_angle_gamma   90.00000000
_symmetry_Int_Tables_number   1
_chemical_formula_structural   NaCl
_chemical_formula_sum   'Na4 Cl4'
_cell_volume   156.79278831
_cell_formula_units_Z   4
loop_
 _symmetry_equiv_pos_site_id
 _symmetry_equiv_pos_as_xyz
  1  'x, y, z'
loop_
 _atom_site_type_symbol
 _atom_site_label
 _atom_site_symmetry_multiplicity
 _atom_site_fract_x
 _atom_site_fract_y
 _atom_site_fract_z
 _atom_site_occupancy
  Na  Na0  1  0.25237056  0.94373530  0.99912182  1.0
  Na  Na1  1  0.81742390  0.11792658  0.09092085  1.0
  Na  Na2  1  0.06039237  0.54324404  0.29269568  1.0
  Na  Na3  1  0.71165316  0.50124366  0.27045303  1.0
  Cl  Cl4  1  0.89862057  0.81124973  0.81114869  1.0
  Cl  Cl5  1  0.26314948  0.07457382  0.18792389  1.0
  Cl  Cl6  1  0.84815798  0.71037061  0.22557738  1.0
  Cl  Cl7  1  0.89058131  0.16743050  0.54465380  1.0
