# generated using pymatgen
data_NaCl
_symmetry_space_group_name_H-M   'P 1'
_cell_length_a   6.80721200
_cell_length_b   10.05904794
_cell_length_c   4.63496130
_cell_angle_alpha   90.00000000
_cell_angle_beta   90.00000000
_cell_angle_gamma   90.00000000
_symmetry_Int_Tables_number   1
_chemical_formula_structural   NaCl
_chemical_formula_sum   'Na4 Cl4'
_cell_volume   317.37467306
_cell_formula_units_Z   4
loop_
 _symmetry_equiv_pos_site_id
 _symmetry_equiv_pos_as_xyz
  1  'x, y, z'
loop_
 _atom_site_type_symbol
 _atom_site_label
 _atom_site_symmetry_multiplicity
 _atom_site_fract_x
 _atom_site_fract_y
 _atom_site_fract_z
 _atom_site_occupancy
  Na  Na0  1  0.00000000  0.32204087  0.93114338  1.0
  Na  Na1  1  0.00000000  0.53873589  0.42370482  1.0
  Na  Na2  1  0.00000000  0.36123376  0.38166960  1.0
  Na  Na3  1  0.00000000  0.91091802  0.27058870  1.0
  Cl  Cl4  1  0.50000000  0.90997423  0.80654473  1.0
  Cl  Cl5  1  0.50000000  0.66755905  0.43766626  1.0
  Cl  Cl6  1  0.50000000  0.93945595  0.09905650  1.0
  Cl  Cl7  1  0.50000000  0.46211203  0.34491963  1.0
