# generated using pymatgen
data_NaCl
_symmetry_space_group_name_H-M   'P 1'
_cell_length_a   8.62299324
_cell_length_b   8.62299324
_cell_length_c   4.57000865
_cell_angle_alpha   90.00000000
_cell_angle_beta   90.00000000
_cell_angle_gamma   90.00000000
_symmetry_Int_Tables_number   1
_chemical_formula_structural   NaCl
_chemical_formula_sum   'Na4 Cl4'
_cell_volume   339.80761993
_cell_formula_units_Z   4
loop_
 _symmetry_equiv_pos_site_id
 _symmetry_equiv_pos_as_xyz
  1  'x, y, z'
loop_
 _atom_site_type_symbol
 _atom_site_label
 _atom_site_symmetry_multiplicity
 _atom_site_fract_x
 _atom_site_fract_y
 _atom_site_fract_z
 _atom_site_occupancy
  Na  Na0  1  0.38974341  0.84925567  0.86467152  1.0
  Na  Na1  1  0.80794127  0.82292034  0.36712226  1.0
  Na  Na2  1  0.63076960  0.04839554  0.46819587  1.0
  Na  Na3  1  0.08425301  0.45344910  0.12025919  1.0
  Cl  Cl4  1  0.95445803  0.59877385  0.80642837  1.0
  Cl  Cl5  1  0.27893768  0.08713367  0.41001693  1.0
  Cl  Cl6  1  0.77268578  0.83767094  0.89913805  1.0
  Cl  Cl7  1  0.03699649  0.94398219  0.59964854  1.0
