# generated using pymatgen
data_NaCl
_symmetry_space_group_name_H-M   'P 1'
_cell_length_a   4.29379742
_cell_length_b   11.25721819
_cell_length_c   7.01720895
_cell_angle_alpha   90.00000000
_cell_angle_beta   90.00000000
_cell_angle_gamma   90.00000000
_symmetry_Int_Tables_number   1
_chemical_formula_structural   NaCl
_chemical_formula_sum   'Na4 Cl4'
_cell_volume   339.18531644
_cell_formula_units_Z   4
loop_
 _symmetry_equiv_pos_site_id
 _symmetry_equiv_pos_as_xyz
  1  'x, y, z'
loop_
 _atom_site_type_symbol
 _atom_site_label
 _atom_site_symmetry_multiplicity
 _atom_site_fract_x
 _atom_site_fract_y
 _atom_site_fract_z
 _atom_site_occupancy
  Na  Na0  1  0.26717283  0.92773451  0.48800357  1.0
  Na  Na1  1  0.26948858  0.53786370  0.41719636  1.0
  Na  Na2  1  0.50060358  0.53055591  0.60933426  1.0
  Na  Na3  1  0.38807061  0.23355697  0.36569214  1.0
  Cl  Cl4  1  0.89271313  0.98219201  0.18599191  1.0
  Cl  Cl5  1  0.04669181  0.81184819  0.24744525  1.0
  Cl  Cl6  1  0.27722689  0.49231686  0.08645999  1.0
  Cl  Cl7  1  0.32340383  0.57522442  0.03608457  1.0
