# generated using pymatgen
data_NaCl
_symmetry_space_group_name_H-M   'P 1'
_cell_length_a   5.56130880
_cell_length_b   11.25503940
_cell_length_c   5.80462423
_cell_angle_alpha   90.00000000
_cell_angle_beta   90.00000000
_cell_angle_gamma   90.00000000
_symmetry_Int_Tables_number   1
_chemical_formula_structural   NaCl
_chemical_formula_sum   'Na4 Cl4'
_cell_volume   363.32739130
_cell_formula_units_Z   4
loop_
 _symmetry_equiv_pos_site_id
 _symmetry_equiv_pos_as_xyz
  1  'x, y, z'
loop_
 _atom_site_type_symbol
 _atom_site_label
 _atom_site_symmetry_multiplicity
 _atom_site_fract_x
 _atom_site_fract_y
 _atom_site_fract_z
 _atom_site_occupancy
  Na  Na0  1  0.25084421  0.95599397  0.99998770  1.0
  Na  Na1  1  0.89328314  0.90804822  0.44767564  1.0
  Na  Na2  1  0.98481721  0.99489677  0.04945557  1.0
  Na  Na3  1  0.66982178  0.43516439  0.20802817  1.0
  Cl  Cl4  1  0.93906021  0.92981563  0.83889921  1.0
  Cl  Cl5  1  0.59520159  0.53175065  0.38571967  1.0
  Cl  Cl6  1  0.12558632  0.21671290  0.43336940  1.0
  Cl  Cl7  1  0.62338260  0.89098457  0.45977920  1.0
