# generated using pymatgen
data_NaCl
_symmetry_space_group_name_H-M   'P 1'
_cell_length_a   5.88194918
_cell_length_b   16.28775792
_cell_length_c   3.92794040
_cell_angle_alpha   90.00000000
_cell_angle_beta   105.06966484
_cell_angle_gamma   90.00000000
_symmetry_Int_Tables_number   1
_chemical_formula_structural   NaCl
_chemical_formula_sum   'Na4 Cl4'
_cell_volume   363.37028253
_cell_formula_units_Z   4
loop_
 _symmetry_equiv_pos_site_id
 _symmetry_equiv_pos_as_xyz
  1  'x, y, z'
loop_
 _atom_site_type_symbol
 _atom_site_label
 _atom_site_symmetry_multiplicity
 _atom_site_fract_x
 _atom_site_fract_y
 _atom_site_fract_z
 _atom_site_occupancy
  Na  Na0  1  0.04104683  0.84557965  0.77851391  1.0
  Na  Na1  1  0.75730192  0.94201030  0.40651180  1.0
  Na  Na2  1  0.51771598  0.15915383  0.17934073  1.0
  Na  Na3  1  0.32190559  0.39392794  0.43877919  1.0
  Cl  Cl4  1  0.95470084  0.88249870  0.94827782  1.0
  Cl  Cl5  1  0.67347001  0.90457522  0.08107234  1.0
  Cl  Cl6  1  0.22752336  0.89429911  0.00256221  1.0
  Cl  Cl7  1  0.83095642  0.73981454  0.43109177  1.0
