# generated using pymatgen
data_NaCl
_symmetry_space_group_name_H-M   'P 1'
_cell_length_a   3.67607472
_cell_length_b   11.10137252
_cell_length_c   5.83475762
_cell_angle_alpha   90.00000000
_cell_angle_beta   90.00000000
_cell_angle_gamma   90.00000000
_symmetry_Int_Tables_number   1
_chemical_formula_structural   NaCl
_chemical_formula_sum   'Na4 Cl4'
_cell_volume   238.11339451
_cell_formula_units_Z   4
loop_
 _symmetry_equiv_pos_site_id
 _symmetry_equiv_pos_as_xyz
  1  'x, y, z'
loop_
 _atom_site_type_symbol
 _atom_site_label
 _atom_site_symmetry_multiplicity
 _atom_site_fract_x
 _atom_site_fract_y
 _atom_site_fract_z
 _atom_site_occupancy
  Na  Na0  1  0.25000000  0.82298412  0.63394681  1.0
  Na  Na1  1  0.75000000  0.50478916  0.85446044  1.0
  Na  Na2  1  0.75000000  0.95086169  0.75871118  1.0
  Na  Na3  1  0.25000000  0.39559235  0.30219733  1.0
  Cl  Cl4  1  0.00000000  0.00000000  0.89156852  1.0
  Cl  Cl5  1  0.50000000  0.00000000  0.64201958  1.0
  Cl  Cl6  1  0.50000000  0.50000000  0.59352743  1.0
  Cl  Cl7  1  0.00000000  0.50000000  0.07141420  1.0
