# generated using pymatgen
data_NaCl
_symmetry_space_group_name_H-M   'P 1'
_cell_length_a   5.50031875
_cell_length_b   9.52543441
_cell_length_c   5.46536493
_cell_angle_alpha   90.00000000
_cell_angle_beta   90.00000000
_cell_angle_gamma   90.00000000
_symmetry_Int_Tables_number   1
_chemical_formula_structural   NaCl
_chemical_formula_sum   'Na4 Cl4'
_cell_volume   286.34645754
_cell_formula_units_Z   4
loop_
 _symmetry_equiv_pos_site_id
 _symmetry_equiv_pos_as_xyz
  1  'x, y, z'
loop_
 _atom_site_type_symbol
 _atom_site_label
 _atom_site_symmetry_multiplicity
 _atom_site_fract_x
 _atom_site_fract_y
 _atom_site_fract_z
 _atom_site_occupancy
  Na  Na0  1  0.25833285  0.85109524  0.95770292  1.0
  Na  Na1  1  0.32230026  0.98215444  0.44126662  1.0
  Na  Na2  1  0.64084621  0.11898238  0.22370232  1.0
  Na  Na3  1  0.43777726  0.72935119  0.36599419  1.0
  Cl  Cl4  1  0.82735840  0.91800435  0.64168725  1.0
  Cl  Cl5  1  0.23036293  0.42418719  0.20797675  1.0
  Cl  Cl6  1  0.26198395  0.82238853  0.24115303  1.0
  Cl  Cl7  1  0.23424701  0.22885648  0.21994163  1.0
