# generated using pymatgen
data_NaCl
_symmetry_space_group_name_H-M   'P 1'
_cell_length_a   5.90652630
_cell_length_b   10.30239230
_cell_length_c   7.26280255
_cell_angle_alpha   90.00000000
_cell_angle_beta   124.11863091
_cell_angle_gamma   90.00000000
_symmetry_Int_Tables_number   1
_chemical_formula_structural   NaCl
_chemical_formula_sum   'Na4 Cl4'
_cell_volume   365.88179233
_cell_formula_units_Z   4
loop_
 _symmetry_equiv_pos_site_id
 _symmetry_equiv_pos_as_xyz
  1  'x, y, z'
loop_
 _atom_site_type_symbol
 _atom_site_label
 _atom_site_symmetry_multiplicity
 _atom_site_fract_x
 _atom_site_fract_y
 _atom_site_fract_z
 _atom_site_occupancy
  Na  Na0  1  0.17959217  0.10795437  0.96855423  1.0
  Na  Na1  1  0.61087927  0.99999403  0.40492572  1.0
  Na  Na2  1  0.03081364  0.41520407  0.33382843  1.0
  Na  Na3  1  0.12837636  0.82439803  0.29127677  1.0
  Cl  Cl4  1  0.93247953  0.99996283  0.77116178  1.0
  Cl  Cl5  1  0.90769623  0.49173366  0.36696534  1.0
  Cl  Cl6  1  0.84418111  0.68887428  0.11347931  1.0
  Cl  Cl7  1  0.21912246  0.26520059  0.00885278  1.0
