# generated using pymatgen
data_NaCl
_symmetry_space_group_name_H-M   'P 1'
_cell_length_a   7.59406284
_cell_length_b   11.78470468
_cell_length_c   4.42493940
_cell_angle_alpha   90.00000000
_cell_angle_beta   90.00000000
_cell_angle_gamma   90.00000000
_symmetry_Int_Tables_number   1
_chemical_formula_structural   NaCl
_chemical_formula_sum   'Na4 Cl4'
_cell_volume   396.00458809
_cell_formula_units_Z   4
loop_
 _symmetry_equiv_pos_site_id
 _symmetry_equiv_pos_as_xyz
  1  'x, y, z'
loop_
 _atom_site_type_symbol
 _atom_site_label
 _atom_site_symmetry_multiplicity
 _atom_site_fract_x
 _atom_site_fract_y
 _atom_site_fract_z
 _atom_site_occupancy
  Na  Na0  1  0.24433342  0.43101756  0.98214920  1.0
  Na  Na1  1  0.07964937  0.91112039  0.49948786  1.0
  Na  Na2  1  0.96506865  0.95756615  0.06730622  1.0
  Na  Na3  1  0.58518692  0.80866848  0.06772127  1.0
  Cl  Cl4  1  0.88971588  0.93793429  0.78235538  1.0
  Cl  Cl5  1  0.68322961  0.69946015  0.23338287  1.0
  Cl  Cl6  1  0.01787286  0.17980704  0.33925438  1.0
  Cl  Cl7  1  0.84221937  0.47679758  0.29849921  1.0
