# generated using pymatgen
data_NaCl
_symmetry_space_group_name_H-M   'P 1'
_cell_length_a   6.49218700
_cell_length_b   11.49045377
_cell_length_c   2.80137654
_cell_angle_alpha   90.00000000
_cell_angle_beta   90.00000000
_cell_angle_gamma   90.00000000
_symmetry_Int_Tables_number   1
_chemical_formula_structural   NaCl
_chemical_formula_sum   'Na4 Cl4'
_cell_volume   208.97757622
_cell_formula_units_Z   4
loop_
 _symmetry_equiv_pos_site_id
 _symmetry_equiv_pos_as_xyz
  1  'x, y, z'
loop_
 _atom_site_type_symbol
 _atom_site_label
 _atom_site_symmetry_multiplicity
 _atom_site_fract_x
 _atom_site_fract_y
 _atom_site_fract_z
 _atom_site_occupancy
  Na  Na0  1  0.85892513  0.82169531  0.64904188  1.0
  Na  Na1  1  0.03192990  0.34498223  0.57347049  1.0
  Na  Na2  1  0.69702172  0.64764922  0.20271184  1.0
  Na  Na3  1  0.14407546  0.60286899  0.78844726  1.0
  Cl  Cl4  1  0.38966303  0.31027293  0.78022272  1.0
  Cl  Cl5  1  0.96828400  0.42692384  0.84376810  1.0
  Cl  Cl6  1  0.91865288  0.99989449  0.25811496  1.0
  Cl  Cl7  1  0.84877072  0.18986122  0.90791968  1.0
