# generated using pymatgen
data_NaCl
_symmetry_space_group_name_H-M   'P 1'
_cell_length_a   5.61822545
_cell_length_b   14.08982227
_cell_length_c   3.17921233
_cell_angle_alpha   90.00000000
_cell_angle_beta   124.60480794
_cell_angle_gamma   90.00000000
_symmetry_Int_Tables_number   1
_chemical_formula_structural   NaCl
_chemical_formula_sum   'Na4 Cl4'
_cell_volume   207.14328500
_cell_formula_units_Z   4
loop_
 _symmetry_equiv_pos_site_id
 _symmetry_equiv_pos_as_xyz
  1  'x, y, z'
loop_
 _atom_site_type_symbol
 _atom_site_label
 _atom_site_symmetry_multiplicity
 _atom_site_fract_x
 _atom_site_fract_y
 _atom_site_fract_z
 _atom_site_occupancy
  Na  Na0  1  0.15986102  0.97042779  0.90985193  1.0
  Na  Na1  1  0.32812161  0.50010242  0.09573688  1.0
  Na  Na2  1  0.04485270  0.47960663  0.37946815  1.0
  Na  Na3  1  0.11869778  0.65159764  0.22905813  1.0
  Cl  Cl4  1  0.91493015  0.90901022  0.71006089  1.0
  Cl  Cl5  1  0.31255161  0.76921818  0.32847970  1.0
  Cl  Cl6  1  0.91573472  0.77039989  0.10630566  1.0
  Cl  Cl7  1  0.78773481  0.17540492  0.18531814  1.0
