# generated using pymatgen
data_NaCl
_symmetry_space_group_name_H-M   'P 1'
_cell_length_a   6.80527212
_cell_length_b   6.80527212
_cell_length_c   6.42615492
_cell_angle_alpha   90.00000000
_cell_angle_beta   90.00000000
_cell_angle_gamma   90.00000000
_symmetry_Int_Tables_number   1
_chemical_formula_structural   NaCl
_chemical_formula_sum   'Na4 Cl4'
_cell_volume   297.60634277
_cell_formula_units_Z   4
loop_
 _symmetry_equiv_pos_site_id
 _symmetry_equiv_pos_as_xyz
  1  'x, y, z'
loop_
 _atom_site_type_symbol
 _atom_site_label
 _atom_site_symmetry_multiplicity
 _atom_site_fract_x
 _atom_site_fract_y
 _atom_site_fract_z
 _atom_site_occupancy
  Na  Na0  1  0.96915264  0.96229459  0.83427655  1.0
  Na  Na1  1  0.63312594  0.41018848  0.18646922  1.0
  Na  Na2  1  0.47050524  0.95288315  0.95194248  1.0
  Na  Na3  1  0.28234848  0.62876287  0.60870093  1.0
  Cl  Cl4  1  0.95223997  0.81229032  0.89029648  1.0
  Cl  Cl5  1  0.26999649  0.04429679  0.41846318  1.0
  Cl  Cl6  1  0.45315264  0.73773298  0.43648133  1.0
  Cl  Cl7  1  0.05251707  0.61576057  0.60536974  1.0
