# generated using pymatgen
data_NaCl
_symmetry_space_group_name_H-M   'P 1'
_cell_length_a   4.88398364
_cell_length_b   11.10718921
_cell_length_c   5.94151439
_cell_angle_alpha   90.00000000
_cell_angle_beta   90.00000000
_cell_angle_gamma   90.00000000
_symmetry_Int_Tables_number   1
_chemical_formula_structural   NaCl
_chemical_formula_sum   'Na4 Cl4'
_cell_volume   322.31129412
_cell_formula_units_Z   4
loop_
 _symmetry_equiv_pos_site_id
 _symmetry_equiv_pos_as_xyz
  1  'x, y, z'
loop_
 _atom_site_type_symbol
 _atom_site_label
 _atom_site_symmetry_multiplicity
 _atom_site_fract_x
 _atom_site_fract_y
 _atom_site_fract_z
 _atom_site_occupancy
  Na  Na0  1  0.00000000  0.94311236  0.98258124  1.0
  Na  Na1  1  0.00000000  0.95361066  0.41197144  1.0
  Na  Na2  1  0.50000000  0.94308545  0.33630498  1.0
  Na  Na3  1  0.50000000  0.32065271  0.31317992  1.0
  Cl  Cl4  1  0.00000000  0.99901350  0.80507091  1.0
  Cl  Cl5  1  0.00000000  0.56505489  0.35922758  1.0
  Cl  Cl6  1  0.50000000  0.19074791  0.05714744  1.0
  Cl  Cl7  1  0.50000000  0.82228837  0.03331523  1.0
