# generated using pymatgen
data_NaCl
_symmetry_space_group_name_H-M   'P 1'
_cell_length_a   3.34534758
_cell_length_b   11.14388760
_cell_length_c   6.45518149
_cell_angle_alpha   90.00000000
_cell_angle_beta   67.19270217
_cell_angle_gamma   90.00000000
_symmetry_Int_Tables_number   1
_chemical_formula_structural   NaCl
_chemical_formula_sum   'Na4 Cl4'
_cell_volume   221.83477441
_cell_formula_units_Z   4
loop_
 _symmetry_equiv_pos_site_id
 _symmetry_equiv_pos_as_xyz
  1  'x, y, z'
loop_
 _atom_site_type_symbol
 _atom_site_label
 _atom_site_symmetry_multiplicity
 _atom_site_fract_x
 _atom_site_fract_y
 _atom_site_fract_z
 _atom_site_occupancy
  Na  Na0  1  0.43251598  0.54770754  0.81026659  1.0
  Na  Na1  1  0.10000850  0.56660152  0.42840605  1.0
  Na  Na2  1  0.52321160  0.84358684  0.32154309  1.0
  Na  Na3  1  0.65152403  0.43398377  0.25894617  1.0
  Cl  Cl4  1  0.95276605  0.89474264  0.76501817  1.0
  Cl  Cl5  1  0.86427742  0.56912385  0.29528067  1.0
  Cl  Cl6  1  0.26311325  0.08748969  0.03021191  1.0
  Cl  Cl7  1  0.53702575  0.80624310  0.01972859  1.0
