# generated using pymatgen
data_NaCl
_symmetry_space_group_name_H-M   'P 1'
_cell_length_a   4.16274397
_cell_length_b   10.31698019
_cell_length_c   4.50201938
_cell_angle_alpha   90.00000000
_cell_angle_beta   108.05610918
_cell_angle_gamma   90.00000000
_symmetry_Int_Tables_number   1
_chemical_formula_structural   NaCl
_chemical_formula_sum   'Na4 Cl4'
_cell_volume   183.82626534
_cell_formula_units_Z   4
loop_
 _symmetry_equiv_pos_site_id
 _symmetry_equiv_pos_as_xyz
  1  'x, y, z'
loop_
 _atom_site_type_symbol
 _atom_site_label
 _atom_site_symmetry_multiplicity
 _atom_site_fract_x
 _atom_site_fract_y
 _atom_site_fract_z
 _atom_site_occupancy
  Na  Na0  1  0.25664303  0.90286441  0.84013121  1.0
  Na  Na1  1  0.06392419  0.91734198  0.43988014  1.0
  Na  Na2  1  0.01931154  0.42992338  0.28013525  1.0
  Na  Na3  1  0.29339717  0.72235939  0.40052467  1.0
  Cl  Cl4  1  0.95910421  0.92487824  0.79633594  1.0
  Cl  Cl5  1  0.88477325  0.65768486  0.35216859  1.0
  Cl  Cl6  1  0.71674684  0.80605239  0.11057727  1.0
  Cl  Cl7  1  0.18371673  0.29439087  0.05685733  1.0
