# generated using pymatgen
data_NaCl
_symmetry_space_group_name_H-M   'P 1'
_cell_length_a   5.98704039
_cell_length_b   10.04737597
_cell_length_c   3.48205166
_cell_angle_alpha   90.00000000
_cell_angle_beta   90.00000000
_cell_angle_gamma   90.00000000
_symmetry_Int_Tables_number   1
_chemical_formula_structural   NaCl
_chemical_formula_sum   'Na4 Cl4'
_cell_volume   209.45949485
_cell_formula_units_Z   4
loop_
 _symmetry_equiv_pos_site_id
 _symmetry_equiv_pos_as_xyz
  1  'x, y, z'
loop_
 _atom_site_type_symbol
 _atom_site_label
 _atom_site_symmetry_multiplicity
 _atom_site_fract_x
 _atom_site_fract_y
 _atom_site_fract_z
 _atom_site_occupancy
  Na  Na0  1  0.82851220  0.94156492  0.95908258  1.0
  Na  Na1  1  0.10253486  0.78999193  0.46127481  1.0
  Na  Na2  1  0.95394418  0.09752564  0.90090033  1.0
  Na  Na3  1  0.08840764  0.31166850  0.30853033  1.0
  Cl  Cl4  1  0.96063929  0.95515236  0.68668416  1.0
  Cl  Cl5  1  0.71817819  0.49877144  0.46757790  1.0
  Cl  Cl6  1  0.01336414  0.22367873  0.47998250  1.0
  Cl  Cl7  1  0.81506952  0.41473366  0.13553758  1.0
