# generated using pymatgen
data_NaCl
_symmetry_space_group_name_H-M   'P 1'
_cell_length_a   3.04021598
_cell_length_b   7.24041281
_cell_length_c   6.05043624
_cell_angle_alpha   90.00000000
_cell_angle_beta   90.00000000
_cell_angle_gamma   90.00000000
_symmetry_Int_Tables_number   1
_chemical_formula_structural   NaCl
_chemical_formula_sum   'Na4 Cl4'
_cell_volume   133.18473599
_cell_formula_units_Z   4
loop_
 _symmetry_equiv_pos_site_id
 _symmetry_equiv_pos_as_xyz
  1  'x, y, z'
loop_
 _atom_site_type_symbol
 _atom_site_label
 _atom_site_symmetry_multiplicity
 _atom_site_fract_x
 _atom_site_fract_y
 _atom_site_fract_z
 _atom_site_occupancy
  Na  Na0  1  0.17316004  0.99926432  0.73210939  1.0
  Na  Na1  1  0.43563152  0.35979815  0.42548446  1.0
  Na  Na2  1  0.52134603  0.83833195  0.67600168  1.0
  Na  Na3  1  0.49833489  0.15103650  0.47851571  1.0
  Cl  Cl4  1  0.94497309  0.91591286  0.92669803  1.0
  Cl  Cl5  1  0.32866768  0.86001128  0.24659645  1.0
  Cl  Cl6  1  0.29182065  0.44555452  0.15173595  1.0
  Cl  Cl7  1  0.19650749  0.44851116  0.01364194  1.0
