# generated using pymatgen
data_NaCl
_symmetry_space_group_name_H-M   'P 1'
_cell_length_a   4.20894369
_cell_length_b   9.50569012
_cell_length_c   9.00273045
_cell_angle_alpha   90.00000000
_cell_angle_beta   90.00000000
_cell_angle_gamma   90.00000000
_symmetry_Int_Tables_number   1
_chemical_formula_structural   NaCl
_chemical_formula_sum   'Na4 Cl4'
_cell_volume   360.18947239
_cell_formula_units_Z   4
loop_
 _symmetry_equiv_pos_site_id
 _symmetry_equiv_pos_as_xyz
  1  'x, y, z'
loop_
 _atom_site_type_symbol
 _atom_site_label
 _atom_site_symmetry_multiplicity
 _atom_site_fract_x
 _atom_site_fract_y
 _atom_site_fract_z
 _atom_site_occupancy
  Na  Na0  1  0.20849923  0.92794951  0.80133263  1.0
  Na  Na1  1  0.81200019  0.98743974  0.48110017  1.0
  Na  Na2  1  0.98163314  0.94253942  0.26745709  1.0
  Na  Na3  1  0.54232719  0.35851722  0.17275773  1.0
  Cl  Cl4  1  0.98537892  0.95992949  0.86713781  1.0
  Cl  Cl5  1  0.50469152  0.82473572  0.22298151  1.0
  Cl  Cl6  1  0.23320420  0.12045700  0.48689438  1.0
  Cl  Cl7  1  0.65028542  0.73497812  0.40268867  1.0
