# generated using pymatgen
data_NaCl
_symmetry_space_group_name_H-M   'P 1'
_cell_length_a   6.23762216
_cell_length_b   6.23762216
_cell_length_c   3.13151682
_cell_angle_alpha   90.00000000
_cell_angle_beta   90.00000000
_cell_angle_gamma   90.00000000
_symmetry_Int_Tables_number   1
_chemical_formula_structural   NaCl
_chemical_formula_sum   'Na4 Cl4'
_cell_volume   121.84083789
_cell_formula_units_Z   4
loop_
 _symmetry_equiv_pos_site_id
 _symmetry_equiv_pos_as_xyz
  1  'x, y, z'
loop_
 _atom_site_type_symbol
 _atom_site_label
 _atom_site_symmetry_multiplicity
 _atom_site_fract_x
 _atom_site_fract_y
 _atom_site_fract_z
 _atom_site_occupancy
  Na  Na0  1  0.20819483  0.86963099  0.97178725  1.0
  Na  Na1  1  0.53296100  0.98338905  0.73005450  1.0
  Na  Na2  1  0.61361792  0.18516435  0.50047551  1.0
  Na  Na3  1  0.20735923  0.95646936  0.58189549  1.0
  Cl  Cl4  1  0.88564883  0.96540087  0.70091242  1.0
  Cl  Cl5  1  0.24802237  0.46727050  0.23603869  1.0
  Cl  Cl6  1  0.33905933  0.78896582  0.53694787  1.0
  Cl  Cl7  1  0.76074887  0.77364160  0.46831706  1.0
