# generated using pymatgen
data_NaCl
_symmetry_space_group_name_H-M   'P 1'
_cell_length_a   4.95317401
_cell_length_b   12.36237235
_cell_length_c   4.57424597
_cell_angle_alpha   90.00000000
_cell_angle_beta   90.00000000
_cell_angle_gamma   90.00000000
_symmetry_Int_Tables_number   1
_chemical_formula_structural   NaCl
_chemical_formula_sum   'Na4 Cl4'
_cell_volume   280.09471852
_cell_formula_units_Z   4
loop_
 _symmetry_equiv_pos_site_id
 _symmetry_equiv_pos_as_xyz
  1  'x, y, z'
loop_
 _atom_site_type_symbol
 _atom_site_label
 _atom_site_symmetry_multiplicity
 _atom_site_fract_x
 _atom_site_fract_y
 _atom_site_fract_z
 _atom_site_occupancy
  Na  Na0  1  0.00000000  0.99994566  0.77289513  1.0
  Na  Na1  1  0.50000000  0.88815247  0.33837581  1.0
  Na  Na2  1  0.00000000  0.60563165  0.21204895  1.0
  Na  Na3  1  0.50000000  0.82482746  0.76824707  1.0
  Cl  Cl4  1  0.00000000  0.98138699  0.38456629  1.0
  Cl  Cl5  1  0.50000000  0.76220073  0.17250456  1.0
  Cl  Cl6  1  0.00000000  0.69015388  0.00074297  1.0
  Cl  Cl7  1  0.50000000  0.35237581  0.05427285  1.0
