# generated using pymatgen
data_NaCl
_symmetry_space_group_name_H-M   'P 1'
_cell_length_a   6.06045507
_cell_length_b   7.29811761
_cell_length_c   5.03842512
_cell_angle_alpha   90.00000000
_cell_angle_beta   123.20948146
_cell_angle_gamma   90.00000000
_symmetry_Int_Tables_number   1
_chemical_formula_structural   NaCl
_chemical_formula_sum   'Na4 Cl4'
_cell_volume   186.45198637
_cell_formula_units_Z   4
loop_
 _symmetry_equiv_pos_site_id
 _symmetry_equiv_pos_as_xyz
  1  'x, y, z'
loop_
 _atom_site_type_symbol
 _atom_site_label
 _atom_site_symmetry_multiplicity
 _atom_site_fract_x
 _atom_site_fract_y
 _atom_site_fract_z
 _atom_site_occupancy
  Na  Na0  1  0.18605693  0.85234320  0.84931917  1.0
  Na  Na1  1  0.38454521  0.55087317  0.12071395  1.0
  Na  Na2  1  0.09965882  0.40048004  0.20080165  1.0
  Na  Na3  1  0.92479926  0.66510554  0.09756438  1.0
  Cl  Cl4  1  0.98329858  0.98293338  0.88441111  1.0
  Cl  Cl5  1  0.00046022  0.70271280  0.36276083  1.0
  Cl  Cl6  1  0.76800871  0.78791632  0.00018788  1.0
  Cl  Cl7  1  0.74687315  0.26991816  0.13517399  1.0
