# generated using pymatgen
data_NaCl
_symmetry_space_group_name_H-M   'P 1'
_cell_length_a   3.95326499
_cell_length_b   6.40076791
_cell_length_c   8.95735815
_cell_angle_alpha   90.00000000
_cell_angle_beta   90.00000000
_cell_angle_gamma   90.00000000
_symmetry_Int_Tables_number   1
_chemical_formula_structural   NaCl
_chemical_formula_sum   'Na4 Cl4'
_cell_volume   226.65637873
_cell_formula_units_Z   4
loop_
 _symmetry_equiv_pos_site_id
 _symmetry_equiv_pos_as_xyz
  1  'x, y, z'
loop_
 _atom_site_type_symbol
 _atom_site_label
 _atom_site_symmetry_multiplicity
 _atom_site_fract_x
 _atom_site_fract_y
 _atom_site_fract_z
 _atom_site_occupancy
  Na  Na0  1  0.00000000  0.91048791  0.59655857  1.0
  Na  Na1  1  0.50000000  0.48002468  0.02495452  1.0
  Na  Na2  1  0.00000000  0.52185520  0.45260635  1.0
  Na  Na3  1  0.50000000  0.92301760  0.27632389  1.0
  Cl  Cl4  1  0.00000000  0.99997806  0.80873125  1.0
  Cl  Cl5  1  0.50000000  0.73728452  0.41392950  1.0
  Cl  Cl6  1  0.00000000  0.70305688  0.02964470  1.0
  Cl  Cl7  1  0.50000000  0.38715815  0.31108685  1.0
