# generated using pymatgen
data_NaCl
_symmetry_space_group_name_H-M   'P 1'
_cell_length_a   5.73745790
_cell_length_b   15.52755929
_cell_length_c   4.42916999
_cell_angle_alpha   90.00000000
_cell_angle_beta   90.00000000
_cell_angle_gamma   90.00000000
_symmetry_Int_Tables_number   1
_chemical_formula_structural   NaCl
_chemical_formula_sum   'Na4 Cl4'
_cell_volume   394.58907496
_cell_formula_units_Z   4
loop_
 _symmetry_equiv_pos_site_id
 _symmetry_equiv_pos_as_xyz
  1  'x, y, z'
loop_
 _atom_site_type_symbol
 _atom_site_label
 _atom_site_symmetry_multiplicity
 _atom_site_fract_x
 _atom_site_fract_y
 _atom_site_fract_z
 _atom_site_occupancy
  Na  Na0  1  0.25791755  0.64763647  0.84173066  1.0
  Na  Na1  1  0.65645313  0.96762035  0.41782394  1.0
  Na  Na2  1  0.98334735  0.93973354  0.39275919  1.0
  Na  Na3  1  0.50127368  0.29456974  0.24981652  1.0
  Cl  Cl4  1  0.92700237  0.96644195  0.72723237  1.0
  Cl  Cl5  1  0.63879506  0.52721976  0.27100157  1.0
  Cl  Cl6  1  0.07347331  0.16037774  0.46514841  1.0
  Cl  Cl7  1  0.70189494  0.72882206  0.27803286  1.0
