# generated using pymatgen
data_NaCl
_symmetry_space_group_name_H-M   'P 1'
_cell_length_a   5.76290449
_cell_length_b   11.31342742
_cell_length_c   4.94145798
_cell_angle_alpha   90.00000000
_cell_angle_beta   126.90900815
_cell_angle_gamma   90.00000000
_symmetry_Int_Tables_number   1
_chemical_formula_structural   NaCl
_chemical_formula_sum   'Na4 Cl4'
_cell_volume   257.60732810
_cell_formula_units_Z   4
loop_
 _symmetry_equiv_pos_site_id
 _symmetry_equiv_pos_as_xyz
  1  'x, y, z'
loop_
 _atom_site_type_symbol
 _atom_site_label
 _atom_site_symmetry_multiplicity
 _atom_site_fract_x
 _atom_site_fract_y
 _atom_site_fract_z
 _atom_site_occupancy
  Na  Na0  1  0.17567608  0.99856545  0.87947740  1.0
  Na  Na1  1  0.73664073  0.92265260  0.36344986  1.0
  Na  Na2  1  0.53992564  0.94306069  0.45642808  1.0
  Na  Na3  1  0.67141642  0.37741373  0.37769352  1.0
  Cl  Cl4  1  0.89189233  0.97650637  0.88348949  1.0
  Cl  Cl5  1  0.87681739  0.46306587  0.25615288  1.0
  Cl  Cl6  1  0.33427502  0.13900213  0.01549730  1.0
  Cl  Cl7  1  0.57776528  0.84366308  0.06550451  1.0
