# generated using pymatgen
data_NaCl
_symmetry_space_group_name_H-M   'P 1'
_cell_length_a   5.89402131
_cell_length_b   8.74831720
_cell_length_c   2.99278407
_cell_angle_alpha   90.00000000
_cell_angle_beta   90.00000000
_cell_angle_gamma   90.00000000
_symmetry_Int_Tables_number   1
_chemical_formula_structural   NaCl
_chemical_formula_sum   'Na4 Cl4'
_cell_volume   154.31623069
_cell_formula_units_Z   4
loop_
 _symmetry_equiv_pos_site_id
 _symmetry_equiv_pos_as_xyz
  1  'x, y, z'
loop_
 _atom_site_type_symbol
 _atom_site_label
 _atom_site_symmetry_multiplicity
 _atom_site_fract_x
 _atom_site_fract_y
 _atom_site_fract_z
 _atom_site_occupancy
  Na  Na0  1  0.24152370  0.77186883  0.47713721  1.0
  Na  Na1  1  0.29682363  0.98403425  0.43504415  1.0
  Na  Na2  1  0.63611207  0.74329217  0.22639668  1.0
  Na  Na3  1  0.47838405  0.29901311  0.02028261  1.0
  Cl  Cl4  1  0.95563505  0.96930568  0.92208076  1.0
  Cl  Cl5  1  0.03012797  0.57672926  0.08671122  1.0
  Cl  Cl6  1  0.13087977  0.39609092  0.21879725  1.0
  Cl  Cl7  1  0.25568210  0.82656502  0.08449044  1.0
