# generated using pymatgen
data_NaCl
_symmetry_space_group_name_H-M   'P 1'
_cell_length_a   5.84016991
_cell_length_b   11.15780682
_cell_length_c   3.16275471
_cell_angle_alpha   90.00000000
_cell_angle_beta   90.00000000
_cell_angle_gamma   90.00000000
_symmetry_Int_Tables_number   1
_chemical_formula_structural   NaCl
_chemical_formula_sum   'Na4 Cl4'
_cell_volume   206.09612749
_cell_formula_units_Z   4
loop_
 _symmetry_equiv_pos_site_id
 _symmetry_equiv_pos_as_xyz
  1  'x, y, z'
loop_
 _atom_site_type_symbol
 _atom_site_label
 _atom_site_symmetry_multiplicity
 _atom_site_fract_x
 _atom_site_fract_y
 _atom_site_fract_z
 _atom_site_occupancy
  Na  Na0  1  0.93834044  0.00000000  0.00000000  1.0
  Na  Na1  1  0.47622265  0.00000000  0.50000000  1.0
  Na  Na2  1  0.08396670  0.50000000  0.00000000  1.0
  Na  Na3  1  0.74458423  0.50000000  0.50000000  1.0
  Cl  Cl4  1  0.92627145  0.83641039  0.72155091  1.0
  Cl  Cl5  1  0.23894969  0.15742776  0.48625003  1.0
  Cl  Cl6  1  0.21899795  0.68574874  0.35612539  1.0
  Cl  Cl7  1  0.08805309  0.87469106  0.10636285  1.0
