# generated using pymatgen
data_NaCl
_symmetry_space_group_name_H-M   'P 1'
_cell_length_a   6.23358943
_cell_length_b   6.23358943
_cell_length_c   6.23358943
_cell_angle_alpha   90.00000000
_cell_angle_beta   90.00000000
_cell_angle_gamma   90.00000000
_symmetry_Int_Tables_number   1
_chemical_formula_structural   NaCl
_chemical_formula_sum   'Na4 Cl4'
_cell_volume   242.22255641
_cell_formula_units_Z   4
loop_
 _symmetry_equiv_pos_site_id
 _symmetry_equiv_pos_as_xyz
  1  'x, y, z'
loop_
 _atom_site_type_symbol
 _atom_site_label
 _atom_site_symmetry_multiplicity
 _atom_site_fract_x
 _atom_site_fract_y
 _atom_site_fract_z
 _atom_site_occupancy
  Na  Na0  1  0.21543874  0.21543874  0.21543874  1.0
  Na  Na1  1  0.85189834  0.35189834  0.14810166  1.0
  Na  Na2  1  0.96899576  0.53100424  0.46899576  1.0
  Na  Na3  1  0.04351550  0.95648450  0.45648450  1.0
  Cl  Cl4  1  0.99987866  0.99987866  0.99987866  1.0
  Cl  Cl5  1  0.50074150  0.00074150  0.49925850  1.0
  Cl  Cl6  1  0.20291084  0.29708916  0.70291084  1.0
  Cl  Cl7  1  0.80343357  0.19656643  0.69656643  1.0
