# generated using pymatgen
data_NaCl
_symmetry_space_group_name_H-M   'P 1'
_cell_length_a   6.93052847
_cell_length_b   13.70236494
_cell_length_c   4.10093837
_cell_angle_alpha   90.00000000
_cell_angle_beta   125.54337164
_cell_angle_gamma   90.00000000
_symmetry_Int_Tables_number   1
_chemical_formula_structural   NaCl
_chemical_formula_sum   'Na4 Cl4'
_cell_volume   316.88119993
_cell_formula_units_Z   4
loop_
 _symmetry_equiv_pos_site_id
 _symmetry_equiv_pos_as_xyz
  1  'x, y, z'
loop_
 _atom_site_type_symbol
 _atom_site_label
 _atom_site_symmetry_multiplicity
 _atom_site_fract_x
 _atom_site_fract_y
 _atom_site_fract_z
 _atom_site_occupancy
  Na  Na0  1  0.99890060  0.93342533  0.88214011  1.0
  Na  Na1  1  0.46164981  0.70741633  0.14231217  1.0
  Na  Na2  1  0.00133031  0.54542364  0.48769068  1.0
  Na  Na3  1  0.14700724  0.60429313  0.36562906  1.0
  Cl  Cl4  1  0.79995783  0.83674523  0.73008652  1.0
  Cl  Cl5  1  0.25418346  0.26839833  0.02923637  1.0
  Cl  Cl6  1  0.90914063  0.81011674  0.00092816  1.0
  Cl  Cl7  1  0.78567959  0.11743396  0.26470875  1.0
