# generated using pymatgen
data_NaCl
_symmetry_space_group_name_H-M   'P 1'
_cell_length_a   6.16845772
_cell_length_b   9.57861186
_cell_length_c   6.83727667
_cell_angle_alpha   90.00000000
_cell_angle_beta   90.00000000
_cell_angle_gamma   90.00000000
_symmetry_Int_Tables_number   1
_chemical_formula_structural   NaCl
_chemical_formula_sum   'Na4 Cl4'
_cell_volume   403.98228529
_cell_formula_units_Z   4
loop_
 _symmetry_equiv_pos_site_id
 _symmetry_equiv_pos_as_xyz
  1  'x, y, z'
loop_
 _atom_site_type_symbol
 _atom_site_label
 _atom_site_symmetry_multiplicity
 _atom_site_fract_x
 _atom_site_fract_y
 _atom_site_fract_z
 _atom_site_occupancy
  Na  Na0  1  0.00000000  0.90410776  0.98249208  1.0
  Na  Na1  1  0.50000000  0.94695213  0.43554333  1.0
  Na  Na2  1  0.00000000  0.40093301  0.21249623  1.0
  Na  Na3  1  0.50000000  0.83634834  0.28945243  1.0
  Cl  Cl4  1  0.00000000  0.92009211  0.42850971  1.0
  Cl  Cl5  1  0.50000000  0.53587909  0.21649770  1.0
  Cl  Cl6  1  0.00000000  0.69889644  0.22597900  1.0
  Cl  Cl7  1  0.50000000  0.27255019  0.17820058  1.0
