# generated using pymatgen
data_NaCl
_symmetry_space_group_name_H-M   'P 1'
_cell_length_a   5.64173870
_cell_length_b   9.88430373
_cell_length_c   7.17633257
_cell_angle_alpha   90.00000000
_cell_angle_beta   107.14953039
_cell_angle_gamma   90.00000000
_symmetry_Int_Tables_number   1
_chemical_formula_structural   NaCl
_chemical_formula_sum   'Na4 Cl4'
_cell_volume   382.39286721
_cell_formula_units_Z   4
loop_
 _symmetry_equiv_pos_site_id
 _symmetry_equiv_pos_as_xyz
  1  'x, y, z'
loop_
 _atom_site_type_symbol
 _atom_site_label
 _atom_site_symmetry_multiplicity
 _atom_site_fract_x
 _atom_site_fract_y
 _atom_site_fract_z
 _atom_site_occupancy
  Na  Na0  1  0.81765915  0.55723172  0.63691205  1.0
  Na  Na1  1  0.71017495  0.00037980  0.23698870  1.0
  Na  Na2  1  0.60291672  0.11000643  0.33203578  1.0
  Na  Na3  1  0.31161699  0.88267027  0.10891846  1.0
  Cl  Cl4  1  0.36341299  0.28638275  0.09601229  1.0
  Cl  Cl5  1  0.27850025  0.18636506  0.90888657  1.0
  Cl  Cl6  1  0.90342054  0.23472592  0.00048106  1.0
  Cl  Cl7  1  0.00130015  0.54852518  0.02285998  1.0
