# generated using pymatgen
data_NaCl
_symmetry_space_group_name_H-M   'P 1'
_cell_length_a   6.12332332
_cell_length_b   6.12332332
_cell_length_c   6.22345128
_cell_angle_alpha   90.00000000
_cell_angle_beta   90.00000000
_cell_angle_gamma   90.00000000
_symmetry_Int_Tables_number   1
_chemical_formula_structural   NaCl
_chemical_formula_sum   'Na4 Cl4'
_cell_volume   233.34885640
_cell_formula_units_Z   4
loop_
 _symmetry_equiv_pos_site_id
 _symmetry_equiv_pos_as_xyz
  1  'x, y, z'
loop_
 _atom_site_type_symbol
 _atom_site_label
 _atom_site_symmetry_multiplicity
 _atom_site_fract_x
 _atom_site_fract_y
 _atom_site_fract_z
 _atom_site_occupancy
  Na  Na0  1  0.04292856  0.88700101  0.36196961  1.0
  Na  Na1  1  0.42249578  0.39383101  0.46709899  1.0
  Na  Na2  1  0.24932308  0.38944756  0.62933355  1.0
  Na  Na3  1  0.16387522  0.65498045  0.64189689  1.0
  Cl  Cl4  1  0.90976954  0.81927146  0.95115418  1.0
  Cl  Cl5  1  0.18481244  0.19803823  0.28212321  1.0
  Cl  Cl6  1  0.29870818  0.84609538  0.28114757  1.0
  Cl  Cl7  1  0.75062091  0.83701349  0.45058077  1.0
