# generated using pymatgen
data_NaCl
_symmetry_space_group_name_H-M   'P 1'
_cell_length_a   5.82521061
_cell_length_b   11.37162917
_cell_length_c   2.43185319
_cell_angle_alpha   90.00000000
_cell_angle_beta   108.26330348
_cell_angle_gamma   90.00000000
_symmetry_Int_Tables_number   1
_chemical_formula_structural   NaCl
_chemical_formula_sum   'Na4 Cl4'
_cell_volume   152.97640399
_cell_formula_units_Z   4
loop_
 _symmetry_equiv_pos_site_id
 _symmetry_equiv_pos_as_xyz
  1  'x, y, z'
loop_
 _atom_site_type_symbol
 _atom_site_label
 _atom_site_symmetry_multiplicity
 _atom_site_fract_x
 _atom_site_fract_y
 _atom_site_fract_z
 _atom_site_occupancy
  Na  Na0  1  0.88553644  0.92814907  0.99975972  1.0
  Na  Na1  1  0.58026413  0.66674967  0.06932410  1.0
  Na  Na2  1  0.01851264  0.59006137  0.61545035  1.0
  Na  Na3  1  0.41636789  0.75840920  0.33972643  1.0
  Cl  Cl4  1  0.99844045  0.96673569  0.66406202  1.0
  Cl  Cl5  1  0.14483112  0.96789294  0.05876045  1.0
  Cl  Cl6  1  0.99660460  0.76013174  0.04248337  1.0
  Cl  Cl7  1  0.69090642  0.53785184  0.21748447  1.0
