# generated using pymatgen
data_NaCl
_symmetry_space_group_name_H-M   'P 1'
_cell_length_a   6.48631466
_cell_length_b   15.59922462
_cell_length_c   2.83204523
_cell_angle_alpha   90.00000000
_cell_angle_beta   121.36499902
_cell_angle_gamma   90.00000000
_symmetry_Int_Tables_number   1
_chemical_formula_structural   NaCl
_chemical_formula_sum   'Na4 Cl4'
_cell_volume   244.67658625
_cell_formula_units_Z   4
loop_
 _symmetry_equiv_pos_site_id
 _symmetry_equiv_pos_as_xyz
  1  'x, y, z'
loop_
 _atom_site_type_symbol
 _atom_site_label
 _atom_site_symmetry_multiplicity
 _atom_site_fract_x
 _atom_site_fract_y
 _atom_site_fract_z
 _atom_site_occupancy
  Na  Na0  1  0.05616562  0.81125456  0.81899880  1.0
  Na  Na1  1  0.73022656  0.99933599  0.48119631  1.0
  Na  Na2  1  0.05622748  0.73523807  0.21445312  1.0
  Na  Na3  1  0.88006131  0.82357031  0.29705562  1.0
  Cl  Cl4  1  0.92287745  0.93469303  0.95050234  1.0
  Cl  Cl5  1  0.61378433  0.88350540  0.13078033  1.0
  Cl  Cl6  1  0.69608734  0.36112509  0.04419243  1.0
  Cl  Cl7  1  0.18807041  0.22235085  0.30290450  1.0
