# generated using pymatgen
data_NaCl
_symmetry_space_group_name_H-M   'P 1'
_cell_length_a   4.63726286
_cell_length_b   8.84297850
_cell_length_c   4.10619819
_cell_angle_alpha   90.00000000
_cell_angle_beta   90.00000000
_cell_angle_gamma   90.00000000
_symmetry_Int_Tables_number   1
_chemical_formula_structural   NaCl
_chemical_formula_sum   'Na4 Cl4'
_cell_volume   168.38375517
_cell_formula_units_Z   4
loop_
 _symmetry_equiv_pos_site_id
 _symmetry_equiv_pos_as_xyz
  1  'x, y, z'
loop_
 _atom_site_type_symbol
 _atom_site_label
 _atom_site_symmetry_multiplicity
 _atom_site_fract_x
 _atom_site_fract_y
 _atom_site_fract_z
 _atom_site_occupancy
  Na  Na0  1  0.23904699  0.93397962  0.80275423  1.0
  Na  Na1  1  0.12337855  0.85730943  0.44365767  1.0
  Na  Na2  1  0.66360748  0.53114273  0.08348003  1.0
  Na  Na3  1  0.63260187  0.11724193  0.34915251  1.0
  Cl  Cl4  1  0.92446097  0.93015532  0.35629446  1.0
  Cl  Cl5  1  0.27962452  0.93781399  0.11687673  1.0
  Cl  Cl6  1  0.14492970  0.54089511  0.10340024  1.0
  Cl  Cl7  1  0.34461674  0.66088523  0.03925586  1.0
