# generated using pymatgen
data_NaCl
_symmetry_space_group_name_H-M   'P 1'
_cell_length_a   7.03206415
_cell_length_b   2.61646678
_cell_length_c   8.91987777
_cell_angle_alpha   90.00000000
_cell_angle_beta   54.42043235
_cell_angle_gamma   90.00000000
_symmetry_Int_Tables_number   1
_chemical_formula_structural   NaCl
_chemical_formula_sum   'Na4 Cl4'
_cell_volume   133.47875811
_cell_formula_units_Z   4
loop_
 _symmetry_equiv_pos_site_id
 _symmetry_equiv_pos_as_xyz
  1  'x, y, z'
loop_
 _atom_site_type_symbol
 _atom_site_label
 _atom_site_symmetry_multiplicity
 _atom_site_fract_x
 _atom_site_fract_y
 _atom_site_fract_z
 _atom_site_occupancy
  Na  Na0  1  0.89534048  0.50000000  0.50974501  1.0
  Na  Na1  1  0.73588150  0.50000000  0.41629166  1.0
  Na  Na2  1  0.25213927  0.50000000  0.00181637  1.0
  Na  Na3  1  0.32961287  0.50000000  0.47908358  1.0
  Cl  Cl4  1  0.35643845  0.00000000  0.14369711  1.0
  Cl  Cl5  1  0.15313840  0.00000000  0.82661361  1.0
  Cl  Cl6  1  0.75690887  0.00000000  0.32003153  1.0
  Cl  Cl7  1  0.20522540  0.00000000  0.33904872  1.0
