# generated using pymatgen
data_NaCl
_symmetry_space_group_name_H-M   'P 1'
_cell_length_a   4.98923459
_cell_length_b   4.98923459
_cell_length_c   10.32539598
_cell_angle_alpha   90.00000000
_cell_angle_beta   90.00000000
_cell_angle_gamma   90.00000000
_symmetry_Int_Tables_number   1
_chemical_formula_structural   NaCl
_chemical_formula_sum   'Na4 Cl4'
_cell_volume   257.02452494
_cell_formula_units_Z   4
loop_
 _symmetry_equiv_pos_site_id
 _symmetry_equiv_pos_as_xyz
  1  'x, y, z'
loop_
 _atom_site_type_symbol
 _atom_site_label
 _atom_site_symmetry_multiplicity
 _atom_site_fract_x
 _atom_site_fract_y
 _atom_site_fract_z
 _atom_site_occupancy
  Na  Na0  1  0.37564166  0.94954678  0.81575852  1.0
  Na  Na1  1  0.88594294  0.45659036  0.45815825  1.0
  Na  Na2  1  0.71167078  0.03774800  0.29873982  1.0
  Na  Na3  1  0.26461302  0.81091624  0.10450599  1.0
  Cl  Cl4  1  0.69243116  0.88508166  0.81747089  1.0
  Cl  Cl5  1  0.22115339  0.67093887  0.53757742  1.0
  Cl  Cl6  1  0.42634177  0.78465181  0.75027437  1.0
  Cl  Cl7  1  0.67411486  0.91402872  0.68605753  1.0
