# generated using pymatgen
data_NaCl
_symmetry_space_group_name_H-M   'P 1'
_cell_length_a   5.64394558
_cell_length_b   4.52571594
_cell_length_c   9.24506951
_cell_angle_alpha   90.00000000
_cell_angle_beta   114.81838359
_cell_angle_gamma   90.00000000
_symmetry_Int_Tables_number   1
_chemical_formula_structural   NaCl
_chemical_formula_sum   'Na4 Cl4'
_cell_volume   214.33607835
_cell_formula_units_Z   4
loop_
 _symmetry_equiv_pos_site_id
 _symmetry_equiv_pos_as_xyz
  1  'x, y, z'
loop_
 _atom_site_type_symbol
 _atom_site_label
 _atom_site_symmetry_multiplicity
 _atom_site_fract_x
 _atom_site_fract_y
 _atom_site_fract_z
 _atom_site_occupancy
  Na  Na0  1  0.91518843  0.89859279  0.89145695  1.0
  Na  Na1  1  0.43429239  0.61877487  0.18043857  1.0
  Na  Na2  1  0.08857646  0.29842594  0.43871362  1.0
  Na  Na3  1  0.71376398  0.54695723  0.19429602  1.0
  Cl  Cl4  1  0.83941121  0.74044777  0.61719374  1.0
  Cl  Cl5  1  0.10766035  0.75639393  0.25139234  1.0
  Cl  Cl6  1  0.78712926  0.55411949  0.05991155  1.0
  Cl  Cl7  1  0.77275901  0.16077414  0.47184099  1.0
