# generated using pymatgen
data_NaCl
_symmetry_space_group_name_H-M   'P 1'
_cell_length_a   3.33046892
_cell_length_b   14.06188904
_cell_length_c   4.19459466
_cell_angle_alpha   90.00000000
_cell_angle_beta   90.00000000
_cell_angle_gamma   90.00000000
_symmetry_Int_Tables_number   1
_chemical_formula_structural   NaCl
_chemical_formula_sum   'Na4 Cl4'
_cell_volume   196.44412792
_cell_formula_units_Z   4
loop_
 _symmetry_equiv_pos_site_id
 _symmetry_equiv_pos_as_xyz
  1  'x, y, z'
loop_
 _atom_site_type_symbol
 _atom_site_label
 _atom_site_symmetry_multiplicity
 _atom_site_fract_x
 _atom_site_fract_y
 _atom_site_fract_z
 _atom_site_occupancy
  Na  Na0  1  0.92267242  0.98014023  0.94437064  1.0
  Na  Na1  1  0.37120077  0.76324060  0.40096033  1.0
  Na  Na2  1  0.59493293  0.06410077  0.41338491  1.0
  Na  Na3  1  0.04069846  0.53435921  0.29936039  1.0
  Cl  Cl4  1  0.83377820  0.90093298  0.92399536  1.0
  Cl  Cl5  1  0.37881536  0.86457910  0.18630410  1.0
  Cl  Cl6  1  0.20939415  0.70528790  0.19280982  1.0
  Cl  Cl7  1  0.29320522  0.16633860  0.28499501  1.0
