# generated using pymatgen
data_NaCl
_symmetry_space_group_name_H-M   'P 1'
_cell_length_a   4.00247690
_cell_length_b   8.46982724
_cell_length_c   4.97450662
_cell_angle_alpha   90.00000000
_cell_angle_beta   90.00000000
_cell_angle_gamma   90.00000000
_symmetry_Int_Tables_number   1
_chemical_formula_structural   NaCl
_chemical_formula_sum   'Na4 Cl4'
_cell_volume   168.63720645
_cell_formula_units_Z   4
loop_
 _symmetry_equiv_pos_site_id
 _symmetry_equiv_pos_as_xyz
  1  'x, y, z'
loop_
 _atom_site_type_symbol
 _atom_site_label
 _atom_site_symmetry_multiplicity
 _atom_site_fract_x
 _atom_site_fract_y
 _atom_site_fract_z
 _atom_site_occupancy
  Na  Na0  1  0.00000000  0.39806703  0.73345129  1.0
  Na  Na1  1  0.00000000  0.43330552  0.34075580  1.0
  Na  Na2  1  0.00000000  0.67184005  0.95617564  1.0
  Na  Na3  1  0.00000000  0.24628716  0.01350500  1.0
  Cl  Cl4  1  0.00000000  0.08037698  0.07800350  1.0
  Cl  Cl5  1  0.00000000  0.27315984  0.64970190  1.0
  Cl  Cl6  1  0.00000000  0.57710912  0.51807948  1.0
  Cl  Cl7  1  0.00000000  0.99845486  0.91519789  1.0
