# generated using pymatgen
data_NaCl
_symmetry_space_group_name_H-M   'P 1'
_cell_length_a   6.26500971
_cell_length_b   6.26500971
_cell_length_c   6.26500971
_cell_angle_alpha   90.00000000
_cell_angle_beta   90.00000000
_cell_angle_gamma   90.00000000
_symmetry_Int_Tables_number   1
_chemical_formula_structural   NaCl
_chemical_formula_sum   'Na4 Cl4'
_cell_volume   245.90380299
_cell_formula_units_Z   4
loop_
 _symmetry_equiv_pos_site_id
 _symmetry_equiv_pos_as_xyz
  1  'x, y, z'
loop_
 _atom_site_type_symbol
 _atom_site_label
 _atom_site_symmetry_multiplicity
 _atom_site_fract_x
 _atom_site_fract_y
 _atom_site_fract_z
 _atom_site_occupancy
  Na  Na0  1  0.20695118  0.20695118  0.20695118  1.0
  Na  Na1  1  0.81618878  0.31618878  0.18381122  1.0
  Na  Na2  1  0.99947062  0.50052938  0.49947062  1.0
  Na  Na3  1  0.55056807  0.44943193  0.94943193  1.0
  Cl  Cl4  1  0.58414532  0.58414532  0.58414532  1.0
  Cl  Cl5  1  0.69666456  0.19666456  0.30333544  1.0
  Cl  Cl6  1  0.15914040  0.34085960  0.65914040  1.0
  Cl  Cl7  1  0.72374195  0.27625805  0.77625805  1.0
