# generated using pymatgen
data_NaCl
_symmetry_space_group_name_H-M   'P 1'
_cell_length_a   6.09149343
_cell_length_b   6.47545768
_cell_length_c   4.89629547
_cell_angle_alpha   90.00000000
_cell_angle_beta   109.02231256
_cell_angle_gamma   90.00000000
_symmetry_Int_Tables_number   1
_chemical_formula_structural   NaCl
_chemical_formula_sum   'Na4 Cl4'
_cell_volume   182.58860096
_cell_formula_units_Z   4
loop_
 _symmetry_equiv_pos_site_id
 _symmetry_equiv_pos_as_xyz
  1  'x, y, z'
loop_
 _atom_site_type_symbol
 _atom_site_label
 _atom_site_symmetry_multiplicity
 _atom_site_fract_x
 _atom_site_fract_y
 _atom_site_fract_z
 _atom_site_occupancy
  Na  Na0  1  0.22611298  0.91705986  0.81980281  1.0
  Na  Na1  1  0.37532025  0.55232981  0.05657540  1.0
  Na  Na2  1  0.08005689  0.56064297  0.26122150  1.0
  Na  Na3  1  0.47059294  0.77548241  0.20991808  1.0
  Cl  Cl4  1  0.94077046  0.99933890  0.87752317  1.0
  Cl  Cl5  1  0.11773571  0.72010989  0.03620230  1.0
  Cl  Cl6  1  0.75414704  0.66958178  0.00062966  1.0
  Cl  Cl7  1  0.81651798  0.55199541  0.14514031  1.0
