# generated using pymatgen
data_NaCl
_symmetry_space_group_name_H-M   'P 1'
_cell_length_a   6.08271432
_cell_length_b   11.24215217
_cell_length_c   3.84033740
_cell_angle_alpha   90.00000000
_cell_angle_beta   120.96244134
_cell_angle_gamma   90.00000000
_symmetry_Int_Tables_number   1
_chemical_formula_structural   NaCl
_chemical_formula_sum   'Na4 Cl4'
_cell_volume   225.19191195
_cell_formula_units_Z   4
loop_
 _symmetry_equiv_pos_site_id
 _symmetry_equiv_pos_as_xyz
  1  'x, y, z'
loop_
 _atom_site_type_symbol
 _atom_site_label
 _atom_site_symmetry_multiplicity
 _atom_site_fract_x
 _atom_site_fract_y
 _atom_site_fract_z
 _atom_site_occupancy
  Na  Na0  1  0.16777144  0.84870426  0.79544644  1.0
  Na  Na1  1  0.30063965  0.53424756  0.10068823  1.0
  Na  Na2  1  0.09997081  0.43246057  0.09569728  1.0
  Na  Na3  1  0.32417083  0.98958621  0.02009259  1.0
  Cl  Cl4  1  0.82798285  0.90758258  0.93029926  1.0
  Cl  Cl5  1  0.03154806  0.59874573  0.38057798  1.0
  Cl  Cl6  1  0.72074191  0.62318614  0.19661612  1.0
  Cl  Cl7  1  0.73365004  0.43014452  0.33268209  1.0
