# generated using pymatgen
data_NaCl
_symmetry_space_group_name_H-M   'P 1'
_cell_length_a   5.76782041
_cell_length_b   7.40194464
_cell_length_c   5.29634717
_cell_angle_alpha   90.00000000
_cell_angle_beta   112.07653654
_cell_angle_gamma   90.00000000
_symmetry_Int_Tables_number   1
_chemical_formula_structural   NaCl
_chemical_formula_sum   'Na4 Cl4'
_cell_volume   209.53907678
_cell_formula_units_Z   4
loop_
 _symmetry_equiv_pos_site_id
 _symmetry_equiv_pos_as_xyz
  1  'x, y, z'
loop_
 _atom_site_type_symbol
 _atom_site_label
 _atom_site_symmetry_multiplicity
 _atom_site_fract_x
 _atom_site_fract_y
 _atom_site_fract_z
 _atom_site_occupancy
  Na  Na0  1  0.13144303  0.92171333  0.91462390  1.0
  Na  Na1  1  0.30154649  0.64106253  0.00022090  1.0
  Na  Na2  1  0.01756289  0.27643533  0.37449515  1.0
  Na  Na3  1  0.51151036  0.61003239  0.28112072  1.0
  Cl  Cl4  1  0.87571552  0.96711206  0.76959861  1.0
  Cl  Cl5  1  0.12220639  0.08542600  0.21516790  1.0
  Cl  Cl6  1  0.79897586  0.80355820  0.03397594  1.0
  Cl  Cl7  1  0.75370727  0.23850751  0.57779264  1.0
