# generated using pymatgen
data_NaCl
_symmetry_space_group_name_H-M   'P 1'
_cell_length_a   3.81262941
_cell_length_b   8.44339569
_cell_length_c   2.44537497
_cell_angle_alpha   90.00000000
_cell_angle_beta   105.40209446
_cell_angle_gamma   90.00000000
_symmetry_Int_Tables_number   1
_chemical_formula_structural   NaCl
_chemical_formula_sum   'Na4 Cl4'
_cell_volume   75.89319529
_cell_formula_units_Z   4
loop_
 _symmetry_equiv_pos_site_id
 _symmetry_equiv_pos_as_xyz
  1  'x, y, z'
loop_
 _atom_site_type_symbol
 _atom_site_label
 _atom_site_symmetry_multiplicity
 _atom_site_fract_x
 _atom_site_fract_y
 _atom_site_fract_z
 _atom_site_occupancy
  Na  Na0  1  0.29035828  0.78094243  0.86768056  1.0
  Na  Na1  1  0.13380330  0.92511709  0.34974660  1.0
  Na  Na2  1  0.54332752  0.92555935  0.64683991  1.0
  Na  Na3  1  0.05905084  0.37542986  0.27678887  1.0
  Cl  Cl4  1  0.87674168  0.99980180  0.99989080  1.0
  Cl  Cl5  1  0.84495211  0.59317997  0.15269886  1.0
  Cl  Cl6  1  0.26050945  0.21950355  0.11453278  1.0
  Cl  Cl7  1  0.56647802  0.86743956  0.11702701  1.0
