# generated using pymatgen
data_NaCl
_symmetry_space_group_name_H-M   'P 1'
_cell_length_a   5.50847181
_cell_length_b   11.84494652
_cell_length_c   5.50426520
_cell_angle_alpha   90.00000000
_cell_angle_beta   116.41476644
_cell_angle_gamma   90.00000000
_symmetry_Int_Tables_number   1
_chemical_formula_structural   NaCl
_chemical_formula_sum   'Na4 Cl4'
_cell_volume   321.64461353
_cell_formula_units_Z   4
loop_
 _symmetry_equiv_pos_site_id
 _symmetry_equiv_pos_as_xyz
  1  'x, y, z'
loop_
 _atom_site_type_symbol
 _atom_site_label
 _atom_site_symmetry_multiplicity
 _atom_site_fract_x
 _atom_site_fract_y
 _atom_site_fract_z
 _atom_site_occupancy
  Na  Na0  1  0.49573408  0.90655632  0.82028390  1.0
  Na  Na1  1  0.55919999  0.95111181  0.44372616  1.0
  Na  Na2  1  0.09101351  0.43391951  0.49964341  1.0
  Na  Na3  1  0.05036148  0.88803924  0.36642219  1.0
  Cl  Cl4  1  0.82968786  0.85637006  0.62749625  1.0
  Cl  Cl5  1  0.81755773  0.07687410  0.21073184  1.0
  Cl  Cl6  1  0.82081592  0.84874956  0.03980023  1.0
  Cl  Cl7  1  0.15947665  0.31211936  0.35153861  1.0
