# generated using pymatgen
data_NaCl
_symmetry_space_group_name_H-M   'P 1'
_cell_length_a   2.01276135
_cell_length_b   13.63795924
_cell_length_c   14.42010405
_cell_angle_alpha   90.00000000
_cell_angle_beta   90.00000000
_cell_angle_gamma   90.00000000
_symmetry_Int_Tables_number   1
_chemical_formula_structural   NaCl
_chemical_formula_sum   'Na4 Cl4'
_cell_volume   395.83123973
_cell_formula_units_Z   4
loop_
 _symmetry_equiv_pos_site_id
 _symmetry_equiv_pos_as_xyz
  1  'x, y, z'
loop_
 _atom_site_type_symbol
 _atom_site_label
 _atom_site_symmetry_multiplicity
 _atom_site_fract_x
 _atom_site_fract_y
 _atom_site_fract_z
 _atom_site_occupancy
  Na  Na0  1  0.00000000  0.94016116  0.01595760  1.0
  Na  Na1  1  0.00000000  0.94397996  0.27046077  1.0
  Na  Na2  1  0.00000000  0.63813150  0.60459902  1.0
  Na  Na3  1  0.00000000  0.82922041  0.14400204  1.0
  Cl  Cl4  1  0.50000000  0.60360594  0.78713128  1.0
  Cl  Cl5  1  0.50000000  0.11294296  0.39332915  1.0
  Cl  Cl6  1  0.50000000  0.49080403  0.33789394  1.0
  Cl  Cl7  1  0.50000000  0.99948191  0.90867326  1.0
