# generated using pymatgen
data_NaCl
_symmetry_space_group_name_H-M   'P 1'
_cell_length_a   6.36538598
_cell_length_b   6.36538598
_cell_length_c   5.02095972
_cell_angle_alpha   90.00000000
_cell_angle_beta   90.00000000
_cell_angle_gamma   90.00000000
_symmetry_Int_Tables_number   1
_chemical_formula_structural   NaCl
_chemical_formula_sum   'Na4 Cl4'
_cell_volume   203.43994221
_cell_formula_units_Z   4
loop_
 _symmetry_equiv_pos_site_id
 _symmetry_equiv_pos_as_xyz
  1  'x, y, z'
loop_
 _atom_site_type_symbol
 _atom_site_label
 _atom_site_symmetry_multiplicity
 _atom_site_fract_x
 _atom_site_fract_y
 _atom_site_fract_z
 _atom_site_occupancy
  Na  Na0  1  0.92981819  0.92106099  0.94998738  1.0
  Na  Na1  1  0.45368141  0.85426927  0.43738699  1.0
  Na  Na2  1  0.54498953  0.00047582  0.66649150  1.0
  Na  Na3  1  0.08716255  0.12522020  0.46904662  1.0
  Cl  Cl4  1  0.81033784  0.83209248  0.70628488  1.0
  Cl  Cl5  1  0.25594318  0.22982800  0.49514010  1.0
  Cl  Cl6  1  0.21427190  0.85478001  0.28201304  1.0
  Cl  Cl7  1  0.65880427  0.81527937  0.50281494  1.0
