# generated using pymatgen
data_NaCl
_symmetry_space_group_name_H-M   'P 1'
_cell_length_a   6.89253411
_cell_length_b   13.45289853
_cell_length_c   3.77629837
_cell_angle_alpha   90.00000000
_cell_angle_beta   90.00000000
_cell_angle_gamma   90.00000000
_symmetry_Int_Tables_number   1
_chemical_formula_structural   NaCl
_chemical_formula_sum   'Na4 Cl4'
_cell_volume   350.15561233
_cell_formula_units_Z   4
loop_
 _symmetry_equiv_pos_site_id
 _symmetry_equiv_pos_as_xyz
  1  'x, y, z'
loop_
 _atom_site_type_symbol
 _atom_site_label
 _atom_site_symmetry_multiplicity
 _atom_site_fract_x
 _atom_site_fract_y
 _atom_site_fract_z
 _atom_site_occupancy
  Na  Na0  1  0.25494617  0.89292323  0.83516954  1.0
  Na  Na1  1  0.38977746  0.93673774  0.48358750  1.0
  Na  Na2  1  0.50049657  0.48195590  0.11019144  1.0
  Na  Na3  1  0.01824952  0.30797583  0.40393049  1.0
  Cl  Cl4  1  0.93660780  0.99939143  0.82779362  1.0
  Cl  Cl5  1  0.18545789  0.81712348  0.07024623  1.0
  Cl  Cl6  1  0.44886325  0.19569850  0.13457001  1.0
  Cl  Cl7  1  0.29847679  0.80173679  0.14869325  1.0
