# generated using pymatgen
data_NaCl
_symmetry_space_group_name_H-M   'P 1'
_cell_length_a   5.91529651
_cell_length_b   5.91529651
_cell_length_c   5.91529651
_cell_angle_alpha   90.00000000
_cell_angle_beta   90.00000000
_cell_angle_gamma   90.00000000
_symmetry_Int_Tables_number   1
_chemical_formula_structural   NaCl
_chemical_formula_sum   'Na4 Cl4'
_cell_volume   206.98055962
_cell_formula_units_Z   4
loop_
 _symmetry_equiv_pos_site_id
 _symmetry_equiv_pos_as_xyz
  1  'x, y, z'
loop_
 _atom_site_type_symbol
 _atom_site_label
 _atom_site_symmetry_multiplicity
 _atom_site_fract_x
 _atom_site_fract_y
 _atom_site_fract_z
 _atom_site_occupancy
  Na  Na0  1  0.36150806  0.36150806  0.36150806  1.0
  Na  Na1  1  0.99656144  0.49656144  0.00343856  1.0
  Na  Na2  1  0.53105687  0.96894313  0.03105687  1.0
  Na  Na3  1  0.65522223  0.34477777  0.84477777  1.0
  Cl  Cl4  1  0.13698491  0.13698491  0.13698491  1.0
  Cl  Cl5  1  0.59099316  0.09099316  0.40900684  1.0
  Cl  Cl6  1  0.37403148  0.12596852  0.87403148  1.0
  Cl  Cl7  1  0.51930868  0.48069132  0.98069132  1.0
