# generated using pymatgen
data_NaCl
_symmetry_space_group_name_H-M   'P 1'
_cell_length_a   5.34826532
_cell_length_b   5.34826532
_cell_length_c   15.41633685
_cell_angle_alpha   90.00000000
_cell_angle_beta   90.00000000
_cell_angle_gamma   120.00000000
_symmetry_Int_Tables_number   1
_chemical_formula_structural   NaCl
_chemical_formula_sum   'Na4 Cl4'
_cell_volume   381.88949379
_cell_formula_units_Z   4
loop_
 _symmetry_equiv_pos_site_id
 _symmetry_equiv_pos_as_xyz
  1  'x, y, z'
loop_
 _atom_site_type_symbol
 _atom_site_label
 _atom_site_symmetry_multiplicity
 _atom_site_fract_x
 _atom_site_fract_y
 _atom_site_fract_z
 _atom_site_occupancy
  Na  Na0  1  0.33333333  0.66666667  0.33777024  1.0
  Na  Na1  1  0.52972767  0.45908710  0.81785391  1.0
  Na  Na2  1  0.42695092  0.04689532  0.85840416  1.0
  Na  Na3  1  0.87245218  0.99966422  0.05765702  1.0
  Cl  Cl4  1  0.00000000  0.00000000  0.19656544  1.0
  Cl  Cl5  1  0.66666667  0.33333333  0.58345503  1.0
  Cl  Cl6  1  0.66666667  0.33333333  0.08619323  1.0
  Cl  Cl7  1  0.66666667  0.33333333  0.39360671  1.0
