# generated using pymatgen
data_NaCl
_symmetry_space_group_name_H-M   'P 1'
_cell_length_a   3.62092261
_cell_length_b   3.62092261
_cell_length_c   17.17449112
_cell_angle_alpha   90.00000000
_cell_angle_beta   90.00000000
_cell_angle_gamma   120.00000000
_symmetry_Int_Tables_number   1
_chemical_formula_structural   NaCl
_chemical_formula_sum   'Na4 Cl4'
_cell_volume   195.00825448
_cell_formula_units_Z   4
loop_
 _symmetry_equiv_pos_site_id
 _symmetry_equiv_pos_as_xyz
  1  'x, y, z'
loop_
 _atom_site_type_symbol
 _atom_site_label
 _atom_site_symmetry_multiplicity
 _atom_site_fract_x
 _atom_site_fract_y
 _atom_site_fract_z
 _atom_site_occupancy
  Na  Na0  1  0.00000000  0.00000000  0.41775214  1.0
  Na  Na1  1  0.61925411  0.38074589  0.48139679  1.0
  Na  Na2  1  0.50522388  0.50522388  0.83492542  1.0
  Na  Na3  1  0.94792407  0.94792407  0.13649794  1.0
  Cl  Cl4  1  0.33333333  0.66666667  0.48881691  1.0
  Cl  Cl5  1  0.33333333  0.66666667  0.42759354  1.0
  Cl  Cl6  1  0.66666667  0.33333333  0.85262288  1.0
  Cl  Cl7  1  0.66666667  0.33333333  0.57364533  1.0
