# generated using pymatgen
data_NaCl
_symmetry_space_group_name_H-M   'P 1'
_cell_length_a   4.59708544
_cell_length_b   4.59708544
_cell_length_c   13.81940475
_cell_angle_alpha   90.00000000
_cell_angle_beta   90.00000000
_cell_angle_gamma   90.00000000
_symmetry_Int_Tables_number   1
_chemical_formula_structural   NaCl
_chemical_formula_sum   'Na4 Cl4'
_cell_volume   292.04816905
_cell_formula_units_Z   4
loop_
 _symmetry_equiv_pos_site_id
 _symmetry_equiv_pos_as_xyz
  1  'x, y, z'
loop_
 _atom_site_type_symbol
 _atom_site_label
 _atom_site_symmetry_multiplicity
 _atom_site_fract_x
 _atom_site_fract_y
 _atom_site_fract_z
 _atom_site_occupancy
  Na  Na0  1  0.28736986  0.90176768  0.36716209  1.0
  Na  Na1  1  0.53366164  0.47137704  0.34070935  1.0
  Na  Na2  1  0.48766324  0.60220243  0.53766933  1.0
  Na  Na3  1  0.99952612  0.85716087  0.28316186  1.0
  Cl  Cl4  1  0.29242385  0.56917171  0.38971348  1.0
  Cl  Cl5  1  0.16800810  0.47015818  0.09883139  1.0
  Cl  Cl6  1  0.51084776  0.54424600  0.84358742  1.0
  Cl  Cl7  1  0.77184751  0.99868926  0.76412466  1.0
