# generated using pymatgen
data_NaCl
_symmetry_space_group_name_H-M   'P 1'
_cell_length_a   3.87298025
_cell_length_b   3.87298025
_cell_length_c   22.38725744
_cell_angle_alpha   90.00000000
_cell_angle_beta   90.00000000
_cell_angle_gamma   90.00000000
_symmetry_Int_Tables_number   1
_chemical_formula_structural   NaCl
_chemical_formula_sum   'Na4 Cl4'
_cell_volume   335.80832468
_cell_formula_units_Z   4
loop_
 _symmetry_equiv_pos_site_id
 _symmetry_equiv_pos_as_xyz
  1  'x, y, z'
loop_
 _atom_site_type_symbol
 _atom_site_label
 _atom_site_symmetry_multiplicity
 _atom_site_fract_x
 _atom_site_fract_y
 _atom_site_fract_z
 _atom_site_occupancy
  Na  Na0  1  0.30532195  0.30532195  0.37500000  1.0
  Na  Na1  1  0.51644647  0.51644647  0.87500000  1.0
  Na  Na2  1  0.26240609  0.73759391  0.62500000  1.0
  Na  Na3  1  0.19429886  0.80570114  0.12500000  1.0
  Cl  Cl4  1  0.50000000  0.84903897  0.00000000  1.0
  Cl  Cl5  1  0.50000000  0.42933799  0.50000000  1.0
  Cl  Cl6  1  0.48189293  0.50000000  0.25000000  1.0
  Cl  Cl7  1  0.78060744  0.50000000  0.75000000  1.0
