# generated using pymatgen
data_NaCl
_symmetry_space_group_name_H-M   'P 1'
_cell_length_a   4.36961266
_cell_length_b   4.36961266
_cell_length_c   21.48581257
_cell_angle_alpha   90.00000000
_cell_angle_beta   90.00000000
_cell_angle_gamma   90.00000000
_symmetry_Int_Tables_number   1
_chemical_formula_structural   NaCl
_chemical_formula_sum   'Na4 Cl4'
_cell_volume   410.23968026
_cell_formula_units_Z   4
loop_
 _symmetry_equiv_pos_site_id
 _symmetry_equiv_pos_as_xyz
  1  'x, y, z'
loop_
 _atom_site_type_symbol
 _atom_site_label
 _atom_site_symmetry_multiplicity
 _atom_site_fract_x
 _atom_site_fract_y
 _atom_site_fract_z
 _atom_site_occupancy
  Na  Na0  1  0.38043435  0.88043435  0.38860018  1.0
  Na  Na1  1  0.55881630  0.05881630  0.69517050  1.0
  Na  Na2  1  0.17003363  0.32996637  0.26804236  1.0
  Na  Na3  1  0.42106337  0.07893663  0.92283391  1.0
  Cl  Cl4  1  0.00000000  0.50000000  0.60225449  1.0
  Cl  Cl5  1  0.50000000  0.00000000  0.55488456  1.0
  Cl  Cl6  1  0.00000000  0.50000000  0.02622609  1.0
  Cl  Cl7  1  0.50000000  0.00000000  0.48692549  1.0
