# generated using pymatgen
data_NaCl
_symmetry_space_group_name_H-M   'P 1'
_cell_length_a   3.69031931
_cell_length_b   3.69031931
_cell_length_c   16.48195534
_cell_angle_alpha   90.00000000
_cell_angle_beta   90.00000000
_cell_angle_gamma   90.00000000
_symmetry_Int_Tables_number   1
_chemical_formula_structural   NaCl
_chemical_formula_sum   'Na4 Cl4'
_cell_volume   224.45879364
_cell_formula_units_Z   4
loop_
 _symmetry_equiv_pos_site_id
 _symmetry_equiv_pos_as_xyz
  1  'x, y, z'
loop_
 _atom_site_type_symbol
 _atom_site_label
 _atom_site_symmetry_multiplicity
 _atom_site_fract_x
 _atom_site_fract_y
 _atom_site_fract_z
 _atom_site_occupancy
  Na  Na0  1  0.17561805  0.77798295  0.50865426  1.0
  Na  Na1  1  0.65938362  0.74276198  0.16036719  1.0
  Na  Na2  1  0.25004007  0.85448423  0.19392563  1.0
  Na  Na3  1  0.92211598  0.90588750  0.97625191  1.0
  Cl  Cl4  1  0.01858263  0.44542229  0.46909086  1.0
  Cl  Cl5  1  0.44534656  0.47549826  0.88260991  1.0
  Cl  Cl6  1  0.24328458  0.30163797  0.66375980  1.0
  Cl  Cl7  1  0.91938112  0.98159711  0.22047326  1.0
