# generated using pymatgen
data_NaCl
_symmetry_space_group_name_H-M   'P 1'
_cell_length_a   4.33527084
_cell_length_b   4.33527084
_cell_length_c   20.92582569
_cell_angle_alpha   90.00000000
_cell_angle_beta   90.00000000
_cell_angle_gamma   90.00000000
_symmetry_Int_Tables_number   1
_chemical_formula_structural   NaCl
_chemical_formula_sum   'Na4 Cl4'
_cell_volume   393.29196388
_cell_formula_units_Z   4
loop_
 _symmetry_equiv_pos_site_id
 _symmetry_equiv_pos_as_xyz
  1  'x, y, z'
loop_
 _atom_site_type_symbol
 _atom_site_label
 _atom_site_symmetry_multiplicity
 _atom_site_fract_x
 _atom_site_fract_y
 _atom_site_fract_z
 _atom_site_occupancy
  Na  Na0  1  0.33754263  0.97889910  0.28066613  1.0
  Na  Na1  1  0.52244445  0.47461085  0.26721757  1.0
  Na  Na2  1  0.46226179  0.48953873  0.53241852  1.0
  Na  Na3  1  0.81709374  0.65142138  0.44964423  1.0
  Cl  Cl4  1  0.37928955  0.60347134  0.39035647  1.0
  Cl  Cl5  1  0.51074155  0.40222798  0.04089377  1.0
  Cl  Cl6  1  0.33414746  0.82563994  0.14632198  1.0
  Cl  Cl7  1  0.86070049  0.99987733  0.75724523  1.0
