# generated using pymatgen
data_NaCl
_symmetry_space_group_name_H-M   'P 1'
_cell_length_a   2.05102349
_cell_length_b   2.05102349
_cell_length_c   17.21586189
_cell_angle_alpha   90.00000000
_cell_angle_beta   90.00000000
_cell_angle_gamma   90.00000000
_symmetry_Int_Tables_number   1
_chemical_formula_structural   NaCl
_chemical_formula_sum   'Na4 Cl4'
_cell_volume   72.42192070
_cell_formula_units_Z   4
loop_
 _symmetry_equiv_pos_site_id
 _symmetry_equiv_pos_as_xyz
  1  'x, y, z'
loop_
 _atom_site_type_symbol
 _atom_site_label
 _atom_site_symmetry_multiplicity
 _atom_site_fract_x
 _atom_site_fract_y
 _atom_site_fract_z
 _atom_site_occupancy
  Na  Na0  1  0.56020821  0.93439597  0.51947515  1.0
  Na  Na1  1  0.42573121  0.52631766  0.22425763  1.0
  Na  Na2  1  0.25864501  0.55002204  0.14264221  1.0
  Na  Na3  1  0.70872455  0.90514843  0.83435586  1.0
  Cl  Cl4  1  0.16673228  0.47743774  0.39053187  1.0
  Cl  Cl5  1  0.54544673  0.64327563  0.97688013  1.0
  Cl  Cl6  1  0.58463039  0.59377612  0.69568504  1.0
  Cl  Cl7  1  0.77580585  0.90776331  0.32002103  1.0
