# generated using pymatgen
data_NaCl
_symmetry_space_group_name_H-M   'P 1'
_cell_length_a   7.18497462
_cell_length_b   7.18497462
_cell_length_c   7.26653815
_cell_angle_alpha   90.00000000
_cell_angle_beta   90.00000000
_cell_angle_gamma   120.00000000
_symmetry_Int_Tables_number   1
_chemical_formula_structural   NaCl
_chemical_formula_sum   'Na4 Cl4'
_cell_volume   324.86929535
_cell_formula_units_Z   4
loop_
 _symmetry_equiv_pos_site_id
 _symmetry_equiv_pos_as_xyz
  1  'x, y, z'
loop_
 _atom_site_type_symbol
 _atom_site_label
 _atom_site_symmetry_multiplicity
 _atom_site_fract_x
 _atom_site_fract_y
 _atom_site_fract_z
 _atom_site_occupancy
  Na  Na0  1  0.66666667  0.33333333  0.50000000  1.0
  Na  Na1  1  0.16823518  0.68961753  0.50000000  1.0
  Na  Na2  1  0.44192404  0.93452395  0.50000000  1.0
  Na  Na3  1  0.96179946  0.86056077  0.50000000  1.0
  Cl  Cl4  1  0.66666667  0.33333333  0.00000000  1.0
  Cl  Cl5  1  0.46388543  0.65776178  0.00000000  1.0
  Cl  Cl6  1  0.49679321  0.28979946  0.00000000  1.0
  Cl  Cl7  1  0.25076758  0.80590444  0.00000000  1.0
