# generated using pymatgen
data_NaCl
_symmetry_space_group_name_H-M   'P 1'
_cell_length_a   5.06435333
_cell_length_b   5.06435333
_cell_length_c   15.02665654
_cell_angle_alpha   90.00000000
_cell_angle_beta   90.00000000
_cell_angle_gamma   120.00000000
_symmetry_Int_Tables_number   1
_chemical_formula_structural   NaCl
_chemical_formula_sum   'Na4 Cl4'
_cell_volume   333.76514968
_cell_formula_units_Z   4
loop_
 _symmetry_equiv_pos_site_id
 _symmetry_equiv_pos_as_xyz
  1  'x, y, z'
loop_
 _atom_site_type_symbol
 _atom_site_label
 _atom_site_symmetry_multiplicity
 _atom_site_fract_x
 _atom_site_fract_y
 _atom_site_fract_z
 _atom_site_occupancy
  Na  Na0  1  0.33333333  0.66666667  0.30705912  1.0
  Na  Na1  1  0.66666667  0.33333333  0.71216939  1.0
  Na  Na2  1  0.66666667  0.33333333  0.22154833  1.0
  Na  Na3  1  0.33333333  0.66666667  0.52415077  1.0
  Cl  Cl4  1  0.00000000  0.00000000  0.31198611  1.0
  Cl  Cl5  1  0.00000000  0.00000000  0.01627929  1.0
  Cl  Cl6  1  0.00000000  0.00000000  0.58857397  1.0
  Cl  Cl7  1  0.00000000  0.00000000  0.95782993  1.0
