# generated using pymatgen
data_NaCl
_symmetry_space_group_name_H-M   'P 1'
_cell_length_a   4.74912006
_cell_length_b   4.74912006
_cell_length_c   12.44001066
_cell_angle_alpha   90.00000000
_cell_angle_beta   90.00000000
_cell_angle_gamma   90.00000000
_symmetry_Int_Tables_number   1
_chemical_formula_structural   NaCl
_chemical_formula_sum   'Na4 Cl4'
_cell_volume   280.57375875
_cell_formula_units_Z   4
loop_
 _symmetry_equiv_pos_site_id
 _symmetry_equiv_pos_as_xyz
  1  'x, y, z'
loop_
 _atom_site_type_symbol
 _atom_site_label
 _atom_site_symmetry_multiplicity
 _atom_site_fract_x
 _atom_site_fract_y
 _atom_site_fract_z
 _atom_site_occupancy
  Na  Na0  1  0.27024917  0.79564028  0.31112771  1.0
  Na  Na1  1  0.66343980  0.56227633  0.31815655  1.0
  Na  Na2  1  0.48909461  0.64500362  0.48442290  1.0
  Na  Na3  1  0.87103410  0.81376861  0.28552917  1.0
  Cl  Cl4  1  0.06059475  0.91867173  0.33842752  1.0
  Cl  Cl5  1  0.46514718  0.43965017  0.98770561  1.0
  Cl  Cl6  1  0.54808603  0.31912079  0.07887156  1.0
  Cl  Cl7  1  0.76422853  0.39591277  0.72349487  1.0
