# generated using pymatgen
data_NaCl
_symmetry_space_group_name_H-M   'P 1'
_cell_length_a   4.33656760
_cell_length_b   4.33656760
_cell_length_c   16.40798568
_cell_angle_alpha   90.00000000
_cell_angle_beta   90.00000000
_cell_angle_gamma   90.00000000
_symmetry_Int_Tables_number   1
_chemical_formula_structural   NaCl
_chemical_formula_sum   'Na4 Cl4'
_cell_volume   308.56560146
_cell_formula_units_Z   4
loop_
 _symmetry_equiv_pos_site_id
 _symmetry_equiv_pos_as_xyz
  1  'x, y, z'
loop_
 _atom_site_type_symbol
 _atom_site_label
 _atom_site_symmetry_multiplicity
 _atom_site_fract_x
 _atom_site_fract_y
 _atom_site_fract_z
 _atom_site_occupancy
  Na  Na0  1  0.23854318  0.23854318  0.41648078  1.0
  Na  Na1  1  0.44438853  0.44438853  0.79544014  1.0
  Na  Na2  1  0.59074560  0.40925440  0.09450937  1.0
  Na  Na3  1  0.93465192  0.06534808  0.88406634  1.0
  Cl  Cl4  1  0.00000000  0.50000000  0.30814230  1.0
  Cl  Cl5  1  0.50000000  0.00000000  0.43290245  1.0
  Cl  Cl6  1  0.00000000  0.50000000  0.94615703  1.0
  Cl  Cl7  1  0.50000000  0.00000000  0.63882062  1.0
