# generated using pymatgen
data_NaCl
_symmetry_space_group_name_H-M   'P 1'
_cell_length_a   6.70542013
_cell_length_b   6.70542013
_cell_length_c   6.70542013
_cell_angle_alpha   90.00000000
_cell_angle_beta   90.00000000
_cell_angle_gamma   90.00000000
_symmetry_Int_Tables_number   1
_chemical_formula_structural   NaCl
_chemical_formula_sum   'Na4 Cl4'
_cell_volume   301.49351956
_cell_formula_units_Z   4
loop_
 _symmetry_equiv_pos_site_id
 _symmetry_equiv_pos_as_xyz
  1  'x, y, z'
loop_
 _atom_site_type_symbol
 _atom_site_label
 _atom_site_symmetry_multiplicity
 _atom_site_fract_x
 _atom_site_fract_y
 _atom_site_fract_z
 _atom_site_occupancy
  Na  Na0  1  0.26053488  0.26053488  0.26053488  1.0
  Na  Na1  1  0.08808130  0.58808130  0.91191870  1.0
  Na  Na2  1  0.32927782  0.17072218  0.82927782  1.0
  Na  Na3  1  0.71246611  0.28753389  0.78753389  1.0
  Cl  Cl4  1  0.15516579  0.15516579  0.15516579  1.0
  Cl  Cl5  1  0.98362031  0.48362031  0.01637969  1.0
  Cl  Cl6  1  0.70548292  0.79451708  0.20548292  1.0
  Cl  Cl7  1  0.12846688  0.87153312  0.37153312  1.0
