# generated using pymatgen
data_NaCl
_symmetry_space_group_name_H-M   'P 1'
_cell_length_a   4.37077788
_cell_length_b   4.37077788
_cell_length_c   17.27578494
_cell_angle_alpha   90.00000000
_cell_angle_beta   90.00000000
_cell_angle_gamma   120.00000000
_symmetry_Int_Tables_number   1
_chemical_formula_structural   NaCl
_chemical_formula_sum   'Na4 Cl4'
_cell_volume   285.81557667
_cell_formula_units_Z   4
loop_
 _symmetry_equiv_pos_site_id
 _symmetry_equiv_pos_as_xyz
  1  'x, y, z'
loop_
 _atom_site_type_symbol
 _atom_site_label
 _atom_site_symmetry_multiplicity
 _atom_site_fract_x
 _atom_site_fract_y
 _atom_site_fract_z
 _atom_site_occupancy
  Na  Na0  1  0.33333333  0.66666667  0.29201192  1.0
  Na  Na1  1  0.66666667  0.33333333  0.20806020  1.0
  Na  Na2  1  0.33333333  0.66666667  0.41164162  1.0
  Na  Na3  1  0.66666667  0.33333333  0.62733826  1.0
  Cl  Cl4  1  0.00000000  0.00000000  0.36017285  1.0
  Cl  Cl5  1  0.00000000  0.00000000  0.92220711  1.0
  Cl  Cl6  1  0.33333333  0.66666667  0.11715437  1.0
  Cl  Cl7  1  0.66666667  0.33333333  0.93045198  1.0
