# generated using pymatgen
data_NaCl
_symmetry_space_group_name_H-M   'P 1'
_cell_length_a   5.13133016
_cell_length_b   5.13133016
_cell_length_c   15.15456543
_cell_angle_alpha   90.00000000
_cell_angle_beta   90.00000000
_cell_angle_gamma   90.00000000
_symmetry_Int_Tables_number   1
_chemical_formula_structural   NaCl
_chemical_formula_sum   'Na4 Cl4'
_cell_volume   399.02803082
_cell_formula_units_Z   4
loop_
 _symmetry_equiv_pos_site_id
 _symmetry_equiv_pos_as_xyz
  1  'x, y, z'
loop_
 _atom_site_type_symbol
 _atom_site_label
 _atom_site_symmetry_multiplicity
 _atom_site_fract_x
 _atom_site_fract_y
 _atom_site_fract_z
 _atom_site_occupancy
  Na  Na0  1  0.26810951  0.00000000  0.38147447  1.0
  Na  Na1  1  0.50433085  0.00000000  0.78041159  1.0
  Na  Na2  1  0.00000000  0.60092597  0.85317763  1.0
  Na  Na3  1  0.00000000  0.91067525  0.17765471  1.0
  Cl  Cl4  1  0.00000000  0.00000000  0.29682231  1.0
  Cl  Cl5  1  0.00000000  0.00000000  0.50545729  1.0
  Cl  Cl6  1  0.50000000  0.50000000  0.01833940  1.0
  Cl  Cl7  1  0.50000000  0.50000000  0.55720751  1.0
