# generated using pymatgen
data_NaCl
_symmetry_space_group_name_H-M   'P 1'
_cell_length_a   2.99709531
_cell_length_b   2.99709531
_cell_length_c   19.74019487
_cell_angle_alpha   90.00000000
_cell_angle_beta   90.00000000
_cell_angle_gamma   90.00000000
_symmetry_Int_Tables_number   1
_chemical_formula_structural   NaCl
_chemical_formula_sum   'Na4 Cl4'
_cell_volume   177.31788550
_cell_formula_units_Z   4
loop_
 _symmetry_equiv_pos_site_id
 _symmetry_equiv_pos_as_xyz
  1  'x, y, z'
loop_
 _atom_site_type_symbol
 _atom_site_label
 _atom_site_symmetry_multiplicity
 _atom_site_fract_x
 _atom_site_fract_y
 _atom_site_fract_z
 _atom_site_occupancy
  Na  Na0  1  0.39430770  0.00000000  0.38228931  1.0
  Na  Na1  1  0.59100800  0.00000000  0.75495279  1.0
  Na  Na2  1  0.00000000  0.70301037  0.71291214  1.0
  Na  Na3  1  0.00000000  0.86496320  0.05227033  1.0
  Cl  Cl4  1  0.66598038  0.66598038  0.46024712  1.0
  Cl  Cl5  1  0.40378392  0.40378392  0.42762722  1.0
  Cl  Cl6  1  0.51731640  0.48268360  0.01367654  1.0
  Cl  Cl7  1  0.12670135  0.87329865  0.47129244  1.0
