# generated using pymatgen
data_NaCl
_symmetry_space_group_name_H-M   'P 1'
_cell_length_a   3.94995769
_cell_length_b   3.94995769
_cell_length_c   13.99170417
_cell_angle_alpha   90.00000000
_cell_angle_beta   90.00000000
_cell_angle_gamma   90.00000000
_symmetry_Int_Tables_number   1
_chemical_formula_structural   NaCl
_chemical_formula_sum   'Na4 Cl4'
_cell_volume   218.30088762
_cell_formula_units_Z   4
loop_
 _symmetry_equiv_pos_site_id
 _symmetry_equiv_pos_as_xyz
  1  'x, y, z'
loop_
 _atom_site_type_symbol
 _atom_site_label
 _atom_site_symmetry_multiplicity
 _atom_site_fract_x
 _atom_site_fract_y
 _atom_site_fract_z
 _atom_site_occupancy
  Na  Na0  1  0.00000000  0.50000000  0.20949987  1.0
  Na  Na1  1  0.50000000  0.00000000  0.09155504  1.0
  Na  Na2  1  0.00000000  0.50000000  0.33808377  1.0
  Na  Na3  1  0.50000000  0.00000000  0.26578397  1.0
  Cl  Cl4  1  0.00000000  0.00000000  0.49999241  1.0
  Cl  Cl5  1  0.00000000  0.00000000  0.99273845  1.0
  Cl  Cl6  1  0.00000000  0.00000000  0.40012822  1.0
  Cl  Cl7  1  0.00000000  0.00000000  0.92876060  1.0
