# generated using pymatgen
data_NaCl
_symmetry_space_group_name_H-M   'P 1'
_cell_length_a   4.47134243
_cell_length_b   4.47134243
_cell_length_c   4.47134243
_cell_angle_alpha   90.00000000
_cell_angle_beta   90.00000000
_cell_angle_gamma   90.00000000
_symmetry_Int_Tables_number   1
_chemical_formula_structural   NaCl
_chemical_formula_sum   'Na4 Cl4'
_cell_volume   89.39511605
_cell_formula_units_Z   4
loop_
 _symmetry_equiv_pos_site_id
 _symmetry_equiv_pos_as_xyz
  1  'x, y, z'
loop_
 _atom_site_type_symbol
 _atom_site_label
 _atom_site_symmetry_multiplicity
 _atom_site_fract_x
 _atom_site_fract_y
 _atom_site_fract_z
 _atom_site_occupancy
  Na  Na0  1  0.61696516  0.61696516  0.61696516  1.0
  Na  Na1  1  0.03267659  0.53267659  0.96732341  1.0
  Na  Na2  1  0.41173329  0.08826671  0.91173329  1.0
  Na  Na3  1  0.53536381  0.46463619  0.96463619  1.0
  Cl  Cl4  1  0.38745110  0.38745110  0.38745110  1.0
  Cl  Cl5  1  0.18766719  0.68766719  0.81233281  1.0
  Cl  Cl6  1  0.22719232  0.27280768  0.72719232  1.0
  Cl  Cl7  1  0.27410785  0.72589215  0.22589215  1.0
