# generated using pymatgen
data_NaCl
_symmetry_space_group_name_H-M   'P 1'
_cell_length_a   5.35280189
_cell_length_b   9.72326122
_cell_length_c   6.93184496
_cell_angle_alpha   90.00000000
_cell_angle_beta   90.00000000
_cell_angle_gamma   90.00000000
_symmetry_Int_Tables_number   1
_chemical_formula_structural   NaCl
_chemical_formula_sum   'Na4 Cl4'
_cell_volume   360.77959294
_cell_formula_units_Z   4
loop_
 _symmetry_equiv_pos_site_id
 _symmetry_equiv_pos_as_xyz
  1  'x, y, z'
loop_
 _atom_site_type_symbol
 _atom_site_label
 _atom_site_symmetry_multiplicity
 _atom_site_fract_x
 _atom_site_fract_y
 _atom_site_fract_z
 _atom_site_occupancy
  Na  Na0  1  0.21648746  0.22541944  0.97968480  1.0
  Na  Na1  1  0.92200844  0.10408155  0.20771748  1.0
  Na  Na2  1  0.40896611  0.85936091  0.80581004  1.0
  Na  Na3  1  0.80679224  0.53748374  0.66927360  1.0
  Cl  Cl4  1  0.81138015  0.24504965  0.78387553  1.0
  Cl  Cl5  1  0.42053300  0.75215891  0.00057733  1.0
  Cl  Cl6  1  0.23052656  0.03007419  0.75009194  1.0
  Cl  Cl7  1  0.04894955  0.28858705  0.93652148  1.0
