# generated using pymatgen
data_NaCl
_symmetry_space_group_name_H-M   'P 1'
_cell_length_a   5.16955966
_cell_length_b   2.73916156
_cell_length_c   16.48885179
_cell_angle_alpha   90.00000000
_cell_angle_beta   90.00000000
_cell_angle_gamma   90.00000000
_symmetry_Int_Tables_number   1
_chemical_formula_structural   NaCl
_chemical_formula_sum   'Na4 Cl4'
_cell_volume   233.48641365
_cell_formula_units_Z   4
loop_
 _symmetry_equiv_pos_site_id
 _symmetry_equiv_pos_as_xyz
  1  'x, y, z'
loop_
 _atom_site_type_symbol
 _atom_site_label
 _atom_site_symmetry_multiplicity
 _atom_site_fract_x
 _atom_site_fract_y
 _atom_site_fract_z
 _atom_site_occupancy
  Na  Na0  1  0.53059877  0.00000000  0.00000000  1.0
  Na  Na1  1  0.58993013  0.00000000  0.50000000  1.0
  Na  Na2  1  0.33087036  0.50000000  0.00000000  1.0
  Na  Na3  1  0.55453203  0.50000000  0.50000000  1.0
  Cl  Cl4  1  0.00000000  0.66262920  0.25000000  1.0
  Cl  Cl5  1  0.00000000  0.89231267  0.75000000  1.0
  Cl  Cl6  1  0.50000000  0.49765273  0.25000000  1.0
  Cl  Cl7  1  0.50000000  0.07338013  0.75000000  1.0
