# generated using pymatgen
data_NaCl
_symmetry_space_group_name_H-M   'P 1'
_cell_length_a   5.99892354
_cell_length_b   4.87466553
_cell_length_c   9.31215946
_cell_angle_alpha   90.00000000
_cell_angle_beta   129.07619267
_cell_angle_gamma   90.00000000
_symmetry_Int_Tables_number   1
_chemical_formula_structural   NaCl
_chemical_formula_sum   'Na4 Cl4'
_cell_volume   211.39895516
_cell_formula_units_Z   4
loop_
 _symmetry_equiv_pos_site_id
 _symmetry_equiv_pos_as_xyz
  1  'x, y, z'
loop_
 _atom_site_type_symbol
 _atom_site_label
 _atom_site_symmetry_multiplicity
 _atom_site_fract_x
 _atom_site_fract_y
 _atom_site_fract_z
 _atom_site_occupancy
  Na  Na0  1  0.28392310  0.94874969  0.48916611  1.0
  Na  Na1  1  0.25677810  0.17090333  0.11997900  1.0
  Na  Na2  1  0.80586464  0.63971118  0.75539696  1.0
  Na  Na3  1  0.06809292  0.07839709  0.26095143  1.0
  Cl  Cl4  1  0.82917656  0.00000000  0.51126513  1.0
  Cl  Cl5  1  0.17930269  0.50000000  0.26438144  1.0
  Cl  Cl6  1  0.58371901  0.00000000  0.99868787  1.0
  Cl  Cl7  1  0.32864278  0.50000000  0.63420394  1.0
