# generated using pymatgen
data_NaCl
_symmetry_space_group_name_H-M   'P 1'
_cell_length_a   5.47355720
_cell_length_b   3.54413927
_cell_length_c   18.90581434
_cell_angle_alpha   90.00000000
_cell_angle_beta   144.27879112
_cell_angle_gamma   90.00000000
_symmetry_Int_Tables_number   1
_chemical_formula_structural   NaCl
_chemical_formula_sum   'Na4 Cl4'
_cell_volume   214.12678499
_cell_formula_units_Z   4
loop_
 _symmetry_equiv_pos_site_id
 _symmetry_equiv_pos_as_xyz
  1  'x, y, z'
loop_
 _atom_site_type_symbol
 _atom_site_label
 _atom_site_symmetry_multiplicity
 _atom_site_fract_x
 _atom_site_fract_y
 _atom_site_fract_z
 _atom_site_occupancy
  Na  Na0  1  0.37818628  0.91485184  0.72179465  1.0
  Na  Na1  1  0.13767640  0.15691439  0.57152863  1.0
  Na  Na2  1  0.59763844  0.24520519  0.99997690  1.0
  Na  Na3  1  0.59537665  0.45714256  0.93634086  1.0
  Cl  Cl4  1  0.99963832  0.29427993  0.96882893  1.0
  Cl  Cl5  1  0.60979302  0.44687305  0.05434411  1.0
  Cl  Cl6  1  0.27307136  0.99875589  0.91853501  1.0
  Cl  Cl7  1  0.81755787  0.80803927  0.28997872  1.0
