# generated using pymatgen
data_NaCl
_symmetry_space_group_name_H-M   'P 1'
_cell_length_a   3.25638121
_cell_length_b   4.90819185
_cell_length_c   13.84397648
_cell_angle_alpha   90.00000000
_cell_angle_beta   90.00000000
_cell_angle_gamma   90.00000000
_symmetry_Int_Tables_number   1
_chemical_formula_structural   NaCl
_chemical_formula_sum   'Na4 Cl4'
_cell_volume   221.26749688
_cell_formula_units_Z   4
loop_
 _symmetry_equiv_pos_site_id
 _symmetry_equiv_pos_as_xyz
  1  'x, y, z'
loop_
 _atom_site_type_symbol
 _atom_site_label
 _atom_site_symmetry_multiplicity
 _atom_site_fract_x
 _atom_site_fract_y
 _atom_site_fract_z
 _atom_site_occupancy
  Na  Na0  1  0.42403143  0.00000000  0.74316268  1.0
  Na  Na1  1  0.70011902  0.00000000  0.06681505  1.0
  Na  Na2  1  0.33883561  0.50000000  0.34469464  1.0
  Na  Na3  1  0.52214358  0.50000000  0.66522351  1.0
  Cl  Cl4  1  0.00000000  0.00000000  0.62066449  1.0
  Cl  Cl5  1  0.00000000  0.50000000  0.98262416  1.0
  Cl  Cl6  1  0.00000000  0.00000000  0.88325236  1.0
  Cl  Cl7  1  0.00000000  0.50000000  0.09581890  1.0
