# generated using pymatgen
data_NaCl
_symmetry_space_group_name_H-M   'P 1'
_cell_length_a   7.50405990
_cell_length_b   7.50405990
_cell_length_c   6.92139281
_cell_angle_alpha   90.00000000
_cell_angle_beta   90.00000000
_cell_angle_gamma   90.00000000
_symmetry_Int_Tables_number   1
_chemical_formula_structural   NaCl
_chemical_formula_sum   'Na4 Cl4'
_cell_volume   389.74996209
_cell_formula_units_Z   4
loop_
 _symmetry_equiv_pos_site_id
 _symmetry_equiv_pos_as_xyz
  1  'x, y, z'
loop_
 _atom_site_type_symbol
 _atom_site_label
 _atom_site_symmetry_multiplicity
 _atom_site_fract_x
 _atom_site_fract_y
 _atom_site_fract_z
 _atom_site_occupancy
  Na  Na0  1  0.34724660  0.93136062  0.50534017  1.0
  Na  Na1  1  0.74766129  0.30602723  0.65236096  1.0
  Na  Na2  1  0.89562969  0.28602142  0.05525734  1.0
  Na  Na3  1  0.60454993  0.39426577  0.92951705  1.0
  Cl  Cl4  1  0.75608413  0.47269390  0.66400006  1.0
  Cl  Cl5  1  0.35068500  0.38477632  0.66510948  1.0
  Cl  Cl6  1  0.12035815  0.49473017  0.23234579  1.0
  Cl  Cl7  1  0.17830206  0.54358733  0.32453737  1.0
