# generated using pymatgen
data_NaCl
_symmetry_space_group_name_H-M   'P 1'
_cell_length_a   4.25751742
_cell_length_b   2.71137465
_cell_length_c   19.91737822
_cell_angle_alpha   90.00000000
_cell_angle_beta   90.00000000
_cell_angle_gamma   90.00000000
_symmetry_Int_Tables_number   1
_chemical_formula_structural   NaCl
_chemical_formula_sum   'Na4 Cl4'
_cell_volume   229.92073300
_cell_formula_units_Z   4
loop_
 _symmetry_equiv_pos_site_id
 _symmetry_equiv_pos_as_xyz
  1  'x, y, z'
loop_
 _atom_site_type_symbol
 _atom_site_label
 _atom_site_symmetry_multiplicity
 _atom_site_fract_x
 _atom_site_fract_y
 _atom_site_fract_z
 _atom_site_occupancy
  Na  Na0  1  0.00000000  0.90203174  0.38864072  1.0
  Na  Na1  1  0.50000000  0.13250744  0.68701693  1.0
  Na  Na2  1  0.00000000  0.17651715  0.99937324  1.0
  Na  Na3  1  0.50000000  0.42348734  0.80152936  1.0
  Cl  Cl4  1  0.90431338  0.48460194  0.86462955  1.0
  Cl  Cl5  1  0.94324098  0.34677019  0.74863451  1.0
  Cl  Cl6  1  0.98624913  0.09433158  0.16226457  1.0
  Cl  Cl7  1  0.28563337  0.22989716  0.41945537  1.0
