# generated using pymatgen
data_NaCl
_symmetry_space_group_name_H-M   'P 1'
_cell_length_a   5.50773047
_cell_length_b   5.50773047
_cell_length_c   10.01278636
_cell_angle_alpha   90.00000000
_cell_angle_beta   90.00000000
_cell_angle_gamma   90.00000000
_symmetry_Int_Tables_number   1
_chemical_formula_structural   NaCl
_chemical_formula_sum   'Na4 Cl4'
_cell_volume   303.73882475
_cell_formula_units_Z   4
loop_
 _symmetry_equiv_pos_site_id
 _symmetry_equiv_pos_as_xyz
  1  'x, y, z'
loop_
 _atom_site_type_symbol
 _atom_site_label
 _atom_site_symmetry_multiplicity
 _atom_site_fract_x
 _atom_site_fract_y
 _atom_site_fract_z
 _atom_site_occupancy
  Na  Na0  1  0.21449880  0.06128153  0.88666253  1.0
  Na  Na1  1  0.93987765  0.07962852  0.50008246  1.0
  Na  Na2  1  0.75721951  0.82664149  0.15461364  1.0
  Na  Na3  1  0.55808237  0.29399156  0.21440846  1.0
  Cl  Cl4  1  0.70143886  0.22380075  0.72942571  1.0
  Cl  Cl5  1  0.44026320  0.84788665  0.88986412  1.0
  Cl  Cl6  1  0.08893080  0.96122059  0.03490638  1.0
  Cl  Cl7  1  0.38580211  0.60907523  0.30725965  1.0
