# generated using pymatgen
data_NaCl
_symmetry_space_group_name_H-M   'P 1'
_cell_length_a   4.41068307
_cell_length_b   11.30703248
_cell_length_c   10.51758425
_cell_angle_alpha   90.00000000
_cell_angle_beta   130.07356303
_cell_angle_gamma   90.00000000
_symmetry_Int_Tables_number   1
_chemical_formula_structural   NaCl
_chemical_formula_sum   'Na4 Cl4'
_cell_volume   401.38022093
_cell_formula_units_Z   4
loop_
 _symmetry_equiv_pos_site_id
 _symmetry_equiv_pos_as_xyz
  1  'x, y, z'
loop_
 _atom_site_type_symbol
 _atom_site_label
 _atom_site_symmetry_multiplicity
 _atom_site_fract_x
 _atom_site_fract_y
 _atom_site_fract_z
 _atom_site_occupancy
  Na  Na0  1  0.15611650  0.00273668  0.82041420  1.0
  Na  Na1  1  0.10943516  0.06234790  0.57222566  1.0
  Na  Na2  1  0.95523424  0.25489920  0.96612346  1.0
  Na  Na3  1  0.66330419  0.45111123  0.93732774  1.0
  Cl  Cl4  1  0.79161858  0.06085109  0.77172337  1.0
  Cl  Cl5  1  0.57696205  0.85287874  0.91806006  1.0
  Cl  Cl6  1  0.79199306  0.94772073  0.82484632  1.0
  Cl  Cl7  1  0.43075835  0.63249401  0.09145026  1.0
