# generated using pymatgen
data_NaCl
_symmetry_space_group_name_H-M   'P 1'
_cell_length_a   3.96249421
_cell_length_b   14.54377256
_cell_length_c   6.46570169
_cell_angle_alpha   90.00000000
_cell_angle_beta   130.00761428
_cell_angle_gamma   90.00000000
_symmetry_Int_Tables_number   1
_chemical_formula_structural   NaCl
_chemical_formula_sum   'Na4 Cl4'
_cell_volume   285.40850434
_cell_formula_units_Z   4
loop_
 _symmetry_equiv_pos_site_id
 _symmetry_equiv_pos_as_xyz
  1  'x, y, z'
loop_
 _atom_site_type_symbol
 _atom_site_label
 _atom_site_symmetry_multiplicity
 _atom_site_fract_x
 _atom_site_fract_y
 _atom_site_fract_z
 _atom_site_occupancy
  Na  Na0  1  0.04288931  0.76620475  0.77587939  1.0
  Na  Na1  1  0.12054730  0.19559971  0.58946986  1.0
  Na  Na2  1  0.48331943  0.26782959  0.96408764  1.0
  Na  Na3  1  0.71356741  0.12114080  0.65600357  1.0
  Cl  Cl4  1  0.90442880  0.57025373  0.89148648  1.0
  Cl  Cl5  1  0.64803309  0.61188008  0.77972761  1.0
  Cl  Cl6  1  0.34639702  0.72695998  0.88543295  1.0
  Cl  Cl7  1  0.45255839  0.87797206  0.06529934  1.0
