# generated using pymatgen
data_NaCl
_symmetry_space_group_name_H-M   'P 1'
_cell_length_a   6.96280822
_cell_length_b   4.26940985
_cell_length_c   21.64900835
_cell_angle_alpha   90.00000000
_cell_angle_beta   143.36159942
_cell_angle_gamma   90.00000000
_symmetry_Int_Tables_number   1
_chemical_formula_structural   NaCl
_chemical_formula_sum   'Na4 Cl4'
_cell_volume   384.05377109
_cell_formula_units_Z   4
loop_
 _symmetry_equiv_pos_site_id
 _symmetry_equiv_pos_as_xyz
  1  'x, y, z'
loop_
 _atom_site_type_symbol
 _atom_site_label
 _atom_site_symmetry_multiplicity
 _atom_site_fract_x
 _atom_site_fract_y
 _atom_site_fract_z
 _atom_site_occupancy
  Na  Na0  1  0.18375296  0.50000000  0.80465719  1.0
  Na  Na1  1  0.29612408  0.50000000  0.06926281  1.0
  Na  Na2  1  0.59951344  0.50000000  0.64647747  1.0
  Na  Na3  1  0.64899160  0.50000000  0.45007090  1.0
  Cl  Cl4  1  0.99997340  0.00000000  0.89524212  1.0
  Cl  Cl5  1  0.57180182  0.00000000  0.30981077  1.0
  Cl  Cl6  1  0.37198085  0.85831786  0.97441458  1.0
  Cl  Cl7  1  0.62577186  0.74465870  0.84155062  1.0
