# generated using pymatgen
data_NaCl
_symmetry_space_group_name_H-M   'P 1'
_cell_length_a   9.32215076
_cell_length_b   3.11861341
_cell_length_c   20.73130720
_cell_angle_alpha   90.00000000
_cell_angle_beta   146.09137942
_cell_angle_gamma   90.00000000
_symmetry_Int_Tables_number   1
_chemical_formula_structural   NaCl
_chemical_formula_sum   'Na4 Cl4'
_cell_volume   336.23068585
_cell_formula_units_Z   4
loop_
 _symmetry_equiv_pos_site_id
 _symmetry_equiv_pos_as_xyz
  1  'x, y, z'
loop_
 _atom_site_type_symbol
 _atom_site_label
 _atom_site_symmetry_multiplicity
 _atom_site_fract_x
 _atom_site_fract_y
 _atom_site_fract_z
 _atom_site_occupancy
  Na  Na0  1  0.42128387  0.76209001  0.92316211  1.0
  Na  Na1  1  0.24818009  0.19320923  0.53218809  1.0
  Na  Na2  1  0.11499463  0.68654075  0.48607189  1.0
  Na  Na3  1  0.18104954  0.90365543  0.16111155  1.0
  Cl  Cl4  1  0.97934421  0.47715559  0.82648717  1.0
  Cl  Cl5  1  0.64542527  0.45184077  0.67656512  1.0
  Cl  Cl6  1  0.71559069  0.32795455  0.92455690  1.0
  Cl  Cl7  1  0.03311289  0.27891992  0.27603992  1.0
