# generated using pymatgen
data_NaCl
_symmetry_space_group_name_H-M   'P 1'
_cell_length_a   5.30598237
_cell_length_b   5.30598237
_cell_length_c   10.41491643
_cell_angle_alpha   90.00000000
_cell_angle_beta   90.00000000
_cell_angle_gamma   90.00000000
_symmetry_Int_Tables_number   1
_chemical_formula_structural   NaCl
_chemical_formula_sum   'Na4 Cl4'
_cell_volume   293.21581762
_cell_formula_units_Z   4
loop_
 _symmetry_equiv_pos_site_id
 _symmetry_equiv_pos_as_xyz
  1  'x, y, z'
loop_
 _atom_site_type_symbol
 _atom_site_label
 _atom_site_symmetry_multiplicity
 _atom_site_fract_x
 _atom_site_fract_y
 _atom_site_fract_z
 _atom_site_occupancy
  Na  Na0  1  0.34136908  0.92360222  0.87031534  1.0
  Na  Na1  1  0.65682085  0.52895279  0.51867671  1.0
  Na  Na2  1  0.84084062  0.44696421  0.05419230  1.0
  Na  Na3  1  0.45189905  0.28208048  0.04913518  1.0
  Cl  Cl4  1  0.93768346  0.30085554  0.58660197  1.0
  Cl  Cl5  1  0.48790692  0.48985551  0.71371454  1.0
  Cl  Cl6  1  0.14423091  0.50341913  0.18165609  1.0
  Cl  Cl7  1  0.19461689  0.44388450  0.27144379  1.0
