# generated using pymatgen
data_NaCl
_symmetry_space_group_name_H-M   'P 1'
_cell_length_a   4.66212830
_cell_length_b   3.94809448
_cell_length_c   9.01088418
_cell_angle_alpha   90.00000000
_cell_angle_beta   90.00000000
_cell_angle_gamma   90.00000000
_symmetry_Int_Tables_number   1
_chemical_formula_structural   NaCl
_chemical_formula_sum   'Na4 Cl4'
_cell_volume   165.85904697
_cell_formula_units_Z   4
loop_
 _symmetry_equiv_pos_site_id
 _symmetry_equiv_pos_as_xyz
  1  'x, y, z'
loop_
 _atom_site_type_symbol
 _atom_site_label
 _atom_site_symmetry_multiplicity
 _atom_site_fract_x
 _atom_site_fract_y
 _atom_site_fract_z
 _atom_site_occupancy
  Na  Na0  1  0.27167427  0.97273333  0.97521969  1.0
  Na  Na1  1  0.24032034  0.14343201  0.50080908  1.0
  Na  Na2  1  0.77805169  0.85555313  0.30728343  1.0
  Na  Na3  1  0.47694214  0.41764323  0.14523897  1.0
  Cl  Cl4  1  0.00000000  0.22626526  0.44831851  1.0
  Cl  Cl5  1  0.50000000  0.44707997  0.78530865  1.0
  Cl  Cl6  1  0.00000000  0.90827890  0.94815590  1.0
  Cl  Cl7  1  0.50000000  0.90218757  0.02425212  1.0
