# generated using pymatgen
data_NaCl
_symmetry_space_group_name_H-M   'P 1'
_cell_length_a   5.90865380
_cell_length_b   5.90865380
_cell_length_c   5.90865380
_cell_angle_alpha   90.00000000
_cell_angle_beta   90.00000000
_cell_angle_gamma   90.00000000
_symmetry_Int_Tables_number   1
_chemical_formula_structural   NaCl
_chemical_formula_sum   'Na4 Cl4'
_cell_volume   206.28404250
_cell_formula_units_Z   4
loop_
 _symmetry_equiv_pos_site_id
 _symmetry_equiv_pos_as_xyz
  1  'x, y, z'
loop_
 _atom_site_type_symbol
 _atom_site_label
 _atom_site_symmetry_multiplicity
 _atom_site_fract_x
 _atom_site_fract_y
 _atom_site_fract_z
 _atom_site_occupancy
  Na  Na0  1  0.05541106  0.05541106  0.05541106  1.0
  Na  Na1  1  0.35612850  0.85612850  0.64387150  1.0
  Na  Na2  1  0.45325077  0.04674923  0.95325077  1.0
  Na  Na3  1  0.28095892  0.71904108  0.21904108  1.0
  Cl  Cl4  1  0.94942761  0.94942761  0.94942761  1.0
  Cl  Cl5  1  0.66378993  0.16378993  0.33621007  1.0
  Cl  Cl6  1  0.75157158  0.74842842  0.25157158  1.0
  Cl  Cl7  1  0.14780861  0.85219139  0.35219139  1.0
