# generated using pymatgen
data_NaCl
_symmetry_space_group_name_H-M   'P 1'
_cell_length_a   5.59161838
_cell_length_b   5.59161838
_cell_length_c   9.13771627
_cell_angle_alpha   90.00000000
_cell_angle_beta   90.00000000
_cell_angle_gamma   90.00000000
_symmetry_Int_Tables_number   1
_chemical_formula_structural   NaCl
_chemical_formula_sum   'Na4 Cl4'
_cell_volume   285.70162887
_cell_formula_units_Z   4
loop_
 _symmetry_equiv_pos_site_id
 _symmetry_equiv_pos_as_xyz
  1  'x, y, z'
loop_
 _atom_site_type_symbol
 _atom_site_label
 _atom_site_symmetry_multiplicity
 _atom_site_fract_x
 _atom_site_fract_y
 _atom_site_fract_z
 _atom_site_occupancy
  Na  Na0  1  0.35811299  0.99763459  0.98256099  1.0
  Na  Na1  1  0.67315288  0.16233643  0.50121698  1.0
  Na  Na2  1  0.83182991  0.27091536  0.17398200  1.0
  Na  Na3  1  0.46827123  0.45826063  0.97161378  1.0
  Cl  Cl4  1  0.94512610  0.35941055  0.61534062  1.0
  Cl  Cl5  1  0.20922905  0.52659730  0.79170871  1.0
  Cl  Cl6  1  0.06578881  0.60925102  0.21511183  1.0
  Cl  Cl7  1  0.13551588  0.26450658  0.29733512  1.0
