# generated using pymatgen
data_NaCl
_symmetry_space_group_name_H-M   'P 1'
_cell_length_a   5.12786866
_cell_length_b   11.99540313
_cell_length_c   8.43884417
_cell_angle_alpha   90.00000000
_cell_angle_beta   144.15570739
_cell_angle_gamma   90.00000000
_symmetry_Int_Tables_number   1
_chemical_formula_structural   NaCl
_chemical_formula_sum   'Na4 Cl4'
_cell_volume   303.96548806
_cell_formula_units_Z   4
loop_
 _symmetry_equiv_pos_site_id
 _symmetry_equiv_pos_as_xyz
  1  'x, y, z'
loop_
 _atom_site_type_symbol
 _atom_site_label
 _atom_site_symmetry_multiplicity
 _atom_site_fract_x
 _atom_site_fract_y
 _atom_site_fract_z
 _atom_site_occupancy
  Na  Na0  1  0.40788423  0.85768621  0.61307498  1.0
  Na  Na1  1  0.22464174  0.12317503  0.59615039  1.0
  Na  Na2  1  0.06009148  0.70774768  0.74288557  1.0
  Na  Na3  1  0.95013338  0.07232972  0.68730016  1.0
  Cl  Cl4  1  0.86594541  0.52742620  0.65007134  1.0
  Cl  Cl5  1  0.66384411  0.48620661  0.81438159  1.0
  Cl  Cl6  1  0.08304343  0.35266094  0.74167494  1.0
  Cl  Cl7  1  0.90505212  0.39764424  0.96658032  1.0
