# generated using pymatgen
data_NaCl
_symmetry_space_group_name_H-M   'P 1'
_cell_length_a   2.01826351
_cell_length_b   19.98110699
_cell_length_c   8.37871093
_cell_angle_alpha   90.00000000
_cell_angle_beta   136.98893059
_cell_angle_gamma   90.00000000
_symmetry_Int_Tables_number   1
_chemical_formula_structural   NaCl
_chemical_formula_sum   'Na4 Cl4'
_cell_volume   230.48778297
_cell_formula_units_Z   4
loop_
 _symmetry_equiv_pos_site_id
 _symmetry_equiv_pos_as_xyz
  1  'x, y, z'
loop_
 _atom_site_type_symbol
 _atom_site_label
 _atom_site_symmetry_multiplicity
 _atom_site_fract_x
 _atom_site_fract_y
 _atom_site_fract_z
 _atom_site_occupancy
  Na  Na0  1  0.30699775  0.94537698  0.47574778  1.0
  Na  Na1  1  0.99986332  0.31362254  0.87201257  1.0
  Na  Na2  1  0.60139946  0.23209840  0.66373618  1.0
  Na  Na3  1  0.58329709  0.98658559  0.83450953  1.0
  Cl  Cl4  1  0.83800727  0.41481318  0.55907445  1.0
  Cl  Cl5  1  0.38114360  0.07468311  0.71481353  1.0
  Cl  Cl6  1  0.77520891  0.81890093  0.91937162  1.0
  Cl  Cl7  1  0.61215144  0.54726066  0.53984235  1.0
