# generated using pymatgen
data_NaCl
_symmetry_space_group_name_H-M   'P 1'
_cell_length_a   6.67931419
_cell_length_b   20.69276449
_cell_length_c   7.79284855
_cell_angle_alpha   90.00000000
_cell_angle_beta   159.90848527
_cell_angle_gamma   90.00000000
_symmetry_Int_Tables_number   1
_chemical_formula_structural   NaCl
_chemical_formula_sum   'Na4 Cl4'
_cell_volume   369.99804401
_cell_formula_units_Z   4
loop_
 _symmetry_equiv_pos_site_id
 _symmetry_equiv_pos_as_xyz
  1  'x, y, z'
loop_
 _atom_site_type_symbol
 _atom_site_label
 _atom_site_symmetry_multiplicity
 _atom_site_fract_x
 _atom_site_fract_y
 _atom_site_fract_z
 _atom_site_occupancy
  Na  Na0  1  0.35814887  0.80038447  0.95955457  1.0
  Na  Na1  1  0.86158749  0.40835089  0.98186652  1.0
  Na  Na2  1  0.33013626  0.15592217  0.94786760  1.0
  Na  Na3  1  0.43200205  0.93667622  0.77242209  1.0
  Cl  Cl4  1  0.92330134  0.44426206  0.48867885  1.0
  Cl  Cl5  1  0.32707080  0.12667891  0.68005207  1.0
  Cl  Cl6  1  0.53736761  0.06717750  0.98234469  1.0
  Cl  Cl7  1  0.45420690  0.73587930  0.35687486  1.0
