# generated using pymatgen
data_NaCl
_symmetry_space_group_name_H-M   'P 1'
_cell_length_a   3.98899898
_cell_length_b   3.98899898
_cell_length_c   8.48066574
_cell_angle_alpha   90.00000000
_cell_angle_beta   90.00000000
_cell_angle_gamma   90.00000000
_symmetry_Int_Tables_number   1
_chemical_formula_structural   NaCl
_chemical_formula_sum   'Na4 Cl4'
_cell_volume   134.94531040
_cell_formula_units_Z   4
loop_
 _symmetry_equiv_pos_site_id
 _symmetry_equiv_pos_as_xyz
  1  'x, y, z'
loop_
 _atom_site_type_symbol
 _atom_site_label
 _atom_site_symmetry_multiplicity
 _atom_site_fract_x
 _atom_site_fract_y
 _atom_site_fract_z
 _atom_site_occupancy
  Na  Na0  1  0.00000000  0.50000000  0.83324340  1.0
  Na  Na1  1  0.00000000  0.50000000  0.59058540  1.0
  Na  Na2  1  0.50000000  0.00000000  0.38518883  1.0
  Na  Na3  1  0.50000000  0.00000000  0.22734089  1.0
  Cl  Cl4  1  0.84523151  0.84523151  0.77898536  1.0
  Cl  Cl5  1  0.39735260  0.39735260  0.31912755  1.0
  Cl  Cl6  1  0.08470350  0.91529650  0.49957014  1.0
  Cl  Cl7  1  0.92247128  0.07752872  0.13874192  1.0
