# generated using pymatgen
data_NaCl
_symmetry_space_group_name_H-M   'P 1'
_cell_length_a   3.66683416
_cell_length_b   3.66683416
_cell_length_c   22.26699456
_cell_angle_alpha   90.00000000
_cell_angle_beta   90.00000000
_cell_angle_gamma   90.00000000
_symmetry_Int_Tables_number   1
_chemical_formula_structural   NaCl
_chemical_formula_sum   'Na4 Cl4'
_cell_volume   299.39472213
_cell_formula_units_Z   4
loop_
 _symmetry_equiv_pos_site_id
 _symmetry_equiv_pos_as_xyz
  1  'x, y, z'
loop_
 _atom_site_type_symbol
 _atom_site_label
 _atom_site_symmetry_multiplicity
 _atom_site_fract_x
 _atom_site_fract_y
 _atom_site_fract_z
 _atom_site_occupancy
  Na  Na0  1  0.44823499  0.81335088  0.75578290  1.0
  Na  Na1  1  0.69099948  0.99814427  0.55267565  1.0
  Na  Na2  1  0.73210085  0.83408954  0.27174790  1.0
  Na  Na3  1  0.80962668  0.20671443  0.33764320  1.0
  Cl  Cl4  1  0.87429967  0.80005874  0.88282902  1.0
  Cl  Cl5  1  0.03859432  0.87038711  0.17023096  1.0
  Cl  Cl6  1  0.07409943  0.73440626  0.45935102  1.0
  Cl  Cl7  1  0.40793306  0.50229596  0.87176729  1.0
