# generated using pymatgen
data_NaCl
_symmetry_space_group_name_H-M   'P 1'
_cell_length_a   5.79941489
_cell_length_b   17.43178039
_cell_length_c   5.75550155
_cell_angle_alpha   90.00000000
_cell_angle_beta   139.17032366
_cell_angle_gamma   90.00000000
_symmetry_Int_Tables_number   1
_chemical_formula_structural   NaCl
_chemical_formula_sum   'Na4 Cl4'
_cell_volume   380.41916455
_cell_formula_units_Z   4
loop_
 _symmetry_equiv_pos_site_id
 _symmetry_equiv_pos_as_xyz
  1  'x, y, z'
loop_
 _atom_site_type_symbol
 _atom_site_label
 _atom_site_symmetry_multiplicity
 _atom_site_fract_x
 _atom_site_fract_y
 _atom_site_fract_z
 _atom_site_occupancy
  Na  Na0  1  0.37853934  0.90069216  0.47568930  1.0
  Na  Na1  1  0.28846668  0.16969128  0.22050562  1.0
  Na  Na2  1  0.05140795  0.61797112  0.84804810  1.0
  Na  Na3  1  0.99459195  0.02220303  0.22523518  1.0
  Cl  Cl4  1  0.85818932  0.00000000  0.56756903  1.0
  Cl  Cl5  1  0.10157303  0.50000000  0.29216092  1.0
  Cl  Cl6  1  0.52633743  0.00000000  0.68245399  1.0
  Cl  Cl7  1  0.00828768  0.50000000  0.39798251  1.0
