# generated using pymatgen
data_NaCl
_symmetry_space_group_name_H-M   'P 1'
_cell_length_a   5.77654129
_cell_length_b   2.89910247
_cell_length_c   11.11908314
_cell_angle_alpha   90.00000000
_cell_angle_beta   124.59085328
_cell_angle_gamma   90.00000000
_symmetry_Int_Tables_number   1
_chemical_formula_structural   NaCl
_chemical_formula_sum   'Na4 Cl4'
_cell_volume   153.29219255
_cell_formula_units_Z   4
loop_
 _symmetry_equiv_pos_site_id
 _symmetry_equiv_pos_as_xyz
  1  'x, y, z'
loop_
 _atom_site_type_symbol
 _atom_site_label
 _atom_site_symmetry_multiplicity
 _atom_site_fract_x
 _atom_site_fract_y
 _atom_site_fract_z
 _atom_site_occupancy
  Na  Na0  1  0.28386029  0.94681308  0.90841223  1.0
  Na  Na1  1  0.23752395  0.19744391  0.54459520  1.0
  Na  Na2  1  0.84544174  0.53902720  0.81944060  1.0
  Na  Na3  1  0.05586062  0.14022853  0.61726931  1.0
  Cl  Cl4  1  0.88543702  0.37661850  0.52360398  1.0
  Cl  Cl5  1  0.60850911  0.40638458  0.75345408  1.0
  Cl  Cl6  1  0.89401489  0.49971958  0.97851699  1.0
  Cl  Cl7  1  0.20745404  0.34056475  0.16790558  1.0
