# generated using pymatgen
data_NaCl
_symmetry_space_group_name_H-M   'P 1'
_cell_length_a   7.64790559
_cell_length_b   3.87389670
_cell_length_c   11.82786066
_cell_angle_alpha   90.00000000
_cell_angle_beta   90.00000000
_cell_angle_gamma   90.00000000
_symmetry_Int_Tables_number   1
_chemical_formula_structural   NaCl
_chemical_formula_sum   'Na4 Cl4'
_cell_volume   350.42634872
_cell_formula_units_Z   4
loop_
 _symmetry_equiv_pos_site_id
 _symmetry_equiv_pos_as_xyz
  1  'x, y, z'
loop_
 _atom_site_type_symbol
 _atom_site_label
 _atom_site_symmetry_multiplicity
 _atom_site_fract_x
 _atom_site_fract_y
 _atom_site_fract_z
 _atom_site_occupancy
  Na  Na0  1  0.40317790  0.91517984  0.95158546  1.0
  Na  Na1  1  0.30706345  0.11501535  0.51717973  1.0
  Na  Na2  1  0.79927613  0.65001884  0.61638205  1.0
  Na  Na3  1  0.13036349  0.04357116  0.74533211  1.0
  Cl  Cl4  1  0.96482787  0.32262860  0.53735067  1.0
  Cl  Cl5  1  0.81772346  0.51869411  0.87643681  1.0
  Cl  Cl6  1  0.47659047  0.49912802  0.58044263  1.0
  Cl  Cl7  1  0.21380729  0.41559241  0.35853335  1.0
