# generated using pymatgen
data_NaCl
_symmetry_space_group_name_H-M   'P 1'
_cell_length_a   6.21291797
_cell_length_b   6.21291797
_cell_length_c   6.21291797
_cell_angle_alpha   90.00000000
_cell_angle_beta   90.00000000
_cell_angle_gamma   90.00000000
_symmetry_Int_Tables_number   1
_chemical_formula_structural   NaCl
_chemical_formula_sum   'Na4 Cl4'
_cell_volume   239.82080631
_cell_formula_units_Z   4
loop_
 _symmetry_equiv_pos_site_id
 _symmetry_equiv_pos_as_xyz
  1  'x, y, z'
loop_
 _atom_site_type_symbol
 _atom_site_label
 _atom_site_symmetry_multiplicity
 _atom_site_fract_x
 _atom_site_fract_y
 _atom_site_fract_z
 _atom_site_occupancy
  Na  Na0  1  0.40545476  0.40545476  0.40545476  1.0
  Na  Na1  1  0.19569757  0.69569757  0.80430243  1.0
  Na  Na2  1  0.09840464  0.40159536  0.59840464  1.0
  Na  Na3  1  0.47835912  0.52164088  0.02164088  1.0
  Cl  Cl4  1  0.79661135  0.79661135  0.79661135  1.0
  Cl  Cl5  1  0.94373332  0.44373332  0.05626668  1.0
  Cl  Cl6  1  0.22705061  0.27294939  0.72705061  1.0
  Cl  Cl7  1  0.67450527  0.32549473  0.82549473  1.0
