# generated using pymatgen
data_NaCl
_symmetry_space_group_name_H-M   'P 1'
_cell_length_a   6.21466441
_cell_length_b   4.30460987
_cell_length_c   15.02103938
_cell_angle_alpha   90.00000000
_cell_angle_beta   150.46153268
_cell_angle_gamma   90.00000000
_symmetry_Int_Tables_number   1
_chemical_formula_structural   NaCl
_chemical_formula_sum   'Na4 Cl4'
_cell_volume   198.10947406
_cell_formula_units_Z   4
loop_
 _symmetry_equiv_pos_site_id
 _symmetry_equiv_pos_as_xyz
  1  'x, y, z'
loop_
 _atom_site_type_symbol
 _atom_site_label
 _atom_site_symmetry_multiplicity
 _atom_site_fract_x
 _atom_site_fract_y
 _atom_site_fract_z
 _atom_site_occupancy
  Na  Na0  1  0.00000000  0.00000000  0.50000000  1.0
  Na  Na1  1  0.00000000  0.50000000  0.00000000  1.0
  Na  Na2  1  0.50000000  0.00000000  0.50000000  1.0
  Na  Na3  1  0.50000000  0.50000000  0.00000000  1.0
  Cl  Cl4  1  0.89514746  0.35002500  0.57592322  1.0
  Cl  Cl5  1  0.41306303  0.14768989  0.86114218  1.0
  Cl  Cl6  1  0.26514742  0.00037501  0.14424243  1.0
  Cl  Cl7  1  0.61389069  0.27860890  0.15295032  1.0
