# generated using pymatgen
data_NaCl
_symmetry_space_group_name_H-M   'P 1'
_cell_length_a   7.41365861
_cell_length_b   2.03485973
_cell_length_c   13.62606491
_cell_angle_alpha   90.00000000
_cell_angle_beta   90.00000000
_cell_angle_gamma   90.00000000
_symmetry_Int_Tables_number   1
_chemical_formula_structural   NaCl
_chemical_formula_sum   'Na4 Cl4'
_cell_volume   205.55948172
_cell_formula_units_Z   4
loop_
 _symmetry_equiv_pos_site_id
 _symmetry_equiv_pos_as_xyz
  1  'x, y, z'
loop_
 _atom_site_type_symbol
 _atom_site_label
 _atom_site_symmetry_multiplicity
 _atom_site_fract_x
 _atom_site_fract_y
 _atom_site_fract_z
 _atom_site_occupancy
  Na  Na0  1  0.62757335  0.90432008  0.86697258  1.0
  Na  Na1  1  0.63278704  0.50859796  0.50045835  1.0
  Na  Na2  1  0.78092562  0.45459381  0.92854812  1.0
  Na  Na3  1  0.04318074  0.01339074  0.70199662  1.0
  Cl  Cl4  1  0.96277218  0.31209845  0.91662619  1.0
  Cl  Cl5  1  0.46527593  0.40241266  0.53183832  1.0
  Cl  Cl6  1  0.96666966  0.59398996  0.99988139  1.0
  Cl  Cl7  1  0.91727698  0.71849022  0.25780867  1.0
