# generated using pymatgen
data_NaCl
_symmetry_space_group_name_H-M   'P 1'
_cell_length_a   2.61738207
_cell_length_b   3.14998659
_cell_length_c   20.02870492
_cell_angle_alpha   90.00000000
_cell_angle_beta   90.00000000
_cell_angle_gamma   90.00000000
_symmetry_Int_Tables_number   1
_chemical_formula_structural   NaCl
_chemical_formula_sum   'Na4 Cl4'
_cell_volume   165.13103241
_cell_formula_units_Z   4
loop_
 _symmetry_equiv_pos_site_id
 _symmetry_equiv_pos_as_xyz
  1  'x, y, z'
loop_
 _atom_site_type_symbol
 _atom_site_label
 _atom_site_symmetry_multiplicity
 _atom_site_fract_x
 _atom_site_fract_y
 _atom_site_fract_z
 _atom_site_occupancy
  Na  Na0  1  0.34568216  0.88272718  0.84585995  1.0
  Na  Na1  1  0.67831546  0.21365953  0.62807435  1.0
  Na  Na2  1  0.07780680  0.44308189  0.91787337  1.0
  Na  Na3  1  0.94383745  0.52105699  0.73282204  1.0
  Cl  Cl4  1  0.79163748  0.23525147  0.40383802  1.0
  Cl  Cl5  1  0.45929327  0.44174875  0.56444923  1.0
  Cl  Cl6  1  0.11090556  0.00077879  0.58326363  1.0
  Cl  Cl7  1  0.89571031  0.05965085  0.10855201  1.0
