# generated using pymatgen
data_NaCl
_symmetry_space_group_name_H-M   'P 1'
_cell_length_a   4.09683392
_cell_length_b   4.09683392
_cell_length_c   11.65379400
_cell_angle_alpha   90.00000000
_cell_angle_beta   90.00000000
_cell_angle_gamma   90.00000000
_symmetry_Int_Tables_number   1
_chemical_formula_structural   NaCl
_chemical_formula_sum   'Na4 Cl4'
_cell_volume   195.59783984
_cell_formula_units_Z   4
loop_
 _symmetry_equiv_pos_site_id
 _symmetry_equiv_pos_as_xyz
  1  'x, y, z'
loop_
 _atom_site_type_symbol
 _atom_site_label
 _atom_site_symmetry_multiplicity
 _atom_site_fract_x
 _atom_site_fract_y
 _atom_site_fract_z
 _atom_site_occupancy
  Na  Na0  1  0.21049310  0.83652867  0.74511731  1.0
  Na  Na1  1  0.86127229  0.37357273  0.50112987  1.0
  Na  Na2  1  0.81812263  0.11422562  0.65642379  1.0
  Na  Na3  1  0.64047096  0.30581274  0.79458999  1.0
  Cl  Cl4  1  0.93049250  0.49714816  0.99917051  1.0
  Cl  Cl5  1  0.14460145  0.57733195  0.87221235  1.0
  Cl  Cl6  1  0.24303906  0.37413834  0.52360384  1.0
  Cl  Cl7  1  0.21030790  0.31437392  0.84120661  1.0
