# generated using pymatgen
data_NaCl
_symmetry_space_group_name_H-M   'P 1'
_cell_length_a   4.51242508
_cell_length_b   6.09307421
_cell_length_c   9.95053817
_cell_angle_alpha   90.00000000
_cell_angle_beta   90.00000000
_cell_angle_gamma   90.00000000
_symmetry_Int_Tables_number   1
_chemical_formula_structural   NaCl
_chemical_formula_sum   'Na4 Cl4'
_cell_volume   273.58547849
_cell_formula_units_Z   4
loop_
 _symmetry_equiv_pos_site_id
 _symmetry_equiv_pos_as_xyz
  1  'x, y, z'
loop_
 _atom_site_type_symbol
 _atom_site_label
 _atom_site_symmetry_multiplicity
 _atom_site_fract_x
 _atom_site_fract_y
 _atom_site_fract_z
 _atom_site_occupancy
  Na  Na0  1  0.40734079  0.94489013  0.93245670  1.0
  Na  Na1  1  0.60473313  0.50852278  0.60307305  1.0
  Na  Na2  1  0.78530616  0.48362808  0.94121764  1.0
  Na  Na3  1  0.92332383  0.98128274  0.77211991  1.0
  Cl  Cl4  1  0.12263724  0.36229375  0.54214249  1.0
  Cl  Cl5  1  0.46945146  0.60233933  0.91013188  1.0
  Cl  Cl6  1  0.05565920  0.64792137  0.93313739  1.0
  Cl  Cl7  1  0.00889214  0.74687566  0.99318292  1.0
