# generated using pymatgen
data_NaCl
_symmetry_space_group_name_H-M   'P 1'
_cell_length_a   4.35053331
_cell_length_b   4.35053331
_cell_length_c   7.31475682
_cell_angle_alpha   90.00000000
_cell_angle_beta   90.00000000
_cell_angle_gamma   90.00000000
_symmetry_Int_Tables_number   1
_chemical_formula_structural   NaCl
_chemical_formula_sum   'Na4 Cl4'
_cell_volume   138.44742699
_cell_formula_units_Z   4
loop_
 _symmetry_equiv_pos_site_id
 _symmetry_equiv_pos_as_xyz
  1  'x, y, z'
loop_
 _atom_site_type_symbol
 _atom_site_label
 _atom_site_symmetry_multiplicity
 _atom_site_fract_x
 _atom_site_fract_y
 _atom_site_fract_z
 _atom_site_occupancy
  Na  Na0  1  0.00000000  0.00000000  0.86175535  1.0
  Na  Na1  1  0.00000000  0.50000000  0.46421548  1.0
  Na  Na2  1  0.50000000  0.50000000  0.76301638  1.0
  Na  Na3  1  0.50000000  0.00000000  0.90054108  1.0
  Cl  Cl4  1  0.00000000  0.00000000  0.31261828  1.0
  Cl  Cl5  1  0.00000000  0.50000000  0.89800347  1.0
  Cl  Cl6  1  0.50000000  0.50000000  0.21338925  1.0
  Cl  Cl7  1  0.50000000  0.00000000  0.37724848  1.0
