# generated using pymatgen
data_NaCl
_symmetry_space_group_name_H-M   'P 1'
_cell_length_a   4.36188847
_cell_length_b   4.36188847
_cell_length_c   4.82013485
_cell_angle_alpha   90.00000000
_cell_angle_beta   90.00000000
_cell_angle_gamma   90.00000000
_symmetry_Int_Tables_number   1
_chemical_formula_structural   NaCl
_chemical_formula_sum   'Na4 Cl4'
_cell_volume   91.70822800
_cell_formula_units_Z   4
loop_
 _symmetry_equiv_pos_site_id
 _symmetry_equiv_pos_as_xyz
  1  'x, y, z'
loop_
 _atom_site_type_symbol
 _atom_site_label
 _atom_site_symmetry_multiplicity
 _atom_site_fract_x
 _atom_site_fract_y
 _atom_site_fract_z
 _atom_site_occupancy
  Na  Na0  1  0.28389029  0.99885864  0.95142874  1.0
  Na  Na1  1  0.74355187  0.16785007  0.53478812  1.0
  Na  Na2  1  0.89610752  0.26498012  0.89430696  1.0
  Na  Na3  1  0.49831760  0.48230148  0.29294012  1.0
  Cl  Cl4  1  0.92621020  0.54340370  0.90238343  1.0
  Cl  Cl5  1  0.24340128  0.42593919  0.93314929  1.0
  Cl  Cl6  1  0.08287924  0.72814281  0.20417915  1.0
  Cl  Cl7  1  0.22543509  0.55945274  0.38450626  1.0
