# generated using pymatgen
data_NaCl
_symmetry_space_group_name_H-M   'P 1'
_cell_length_a   5.82213937
_cell_length_b   5.82213937
_cell_length_c   7.02179220
_cell_angle_alpha   90.00000000
_cell_angle_beta   90.00000000
_cell_angle_gamma   90.00000000
_symmetry_Int_Tables_number   1
_chemical_formula_structural   NaCl
_chemical_formula_sum   'Na4 Cl4'
_cell_volume   238.01984480
_cell_formula_units_Z   4
loop_
 _symmetry_equiv_pos_site_id
 _symmetry_equiv_pos_as_xyz
  1  'x, y, z'
loop_
 _atom_site_type_symbol
 _atom_site_label
 _atom_site_symmetry_multiplicity
 _atom_site_fract_x
 _atom_site_fract_y
 _atom_site_fract_z
 _atom_site_occupancy
  Na  Na0  1  0.19168902  0.83917889  0.75681081  1.0
  Na  Na1  1  0.84910498  0.34065609  0.53464872  1.0
  Na  Na2  1  0.77813410  0.53317016  0.95789799  1.0
  Na  Na3  1  0.70880634  0.29726222  0.24662533  1.0
  Cl  Cl4  1  0.93616170  0.52344677  0.86427933  1.0
  Cl  Cl5  1  0.13194469  0.58003946  0.92307431  1.0
  Cl  Cl6  1  0.18014665  0.41010037  0.98084768  1.0
  Cl  Cl7  1  0.23399710  0.35929861  0.25252993  1.0
