# generated using pymatgen
data_NaCl
_symmetry_space_group_name_H-M   'P 1'
_cell_length_a   6.22523070
_cell_length_b   6.22523070
_cell_length_c   6.22523070
_cell_angle_alpha   90.00000000
_cell_angle_beta   90.00000000
_cell_angle_gamma   90.00000000
_symmetry_Int_Tables_number   1
_chemical_formula_structural   NaCl
_chemical_formula_sum   'Na4 Cl4'
_cell_volume   241.24946093
_cell_formula_units_Z   4
loop_
 _symmetry_equiv_pos_site_id
 _symmetry_equiv_pos_as_xyz
  1  'x, y, z'
loop_
 _atom_site_type_symbol
 _atom_site_label
 _atom_site_symmetry_multiplicity
 _atom_site_fract_x
 _atom_site_fract_y
 _atom_site_fract_z
 _atom_site_occupancy
  Na  Na0  1  0.42055434  0.42055434  0.42055434  1.0
  Na  Na1  1  0.06286222  0.56286222  0.93713778  1.0
  Na  Na2  1  0.68380235  0.81619765  0.18380235  1.0
  Na  Na3  1  0.25372797  0.74627203  0.24627203  1.0
  Cl  Cl4  1  0.95558999  0.95558999  0.95558999  1.0
  Cl  Cl5  1  0.89988007  0.39988007  0.10011993  1.0
  Cl  Cl6  1  0.26814557  0.23185443  0.76814557  1.0
  Cl  Cl7  1  0.09888826  0.90111174  0.40111174  1.0
