# generated using pymatgen
data_NaCl
_symmetry_space_group_name_H-M   'P 1'
_cell_length_a   5.12910153
_cell_length_b   3.20696239
_cell_length_c   18.70817417
_cell_angle_alpha   90.00000000
_cell_angle_beta   138.26999681
_cell_angle_gamma   90.00000000
_symmetry_Int_Tables_number   1
_chemical_formula_structural   NaCl
_chemical_formula_sum   'Na4 Cl4'
_cell_volume   204.83008325
_cell_formula_units_Z   4
loop_
 _symmetry_equiv_pos_site_id
 _symmetry_equiv_pos_as_xyz
  1  'x, y, z'
loop_
 _atom_site_type_symbol
 _atom_site_label
 _atom_site_symmetry_multiplicity
 _atom_site_fract_x
 _atom_site_fract_y
 _atom_site_fract_z
 _atom_site_occupancy
  Na  Na0  1  0.29130780  0.50000000  0.90778105  1.0
  Na  Na1  1  0.30007784  0.50000000  0.01859645  1.0
  Na  Na2  1  0.00489973  0.18597689  0.99971762  1.0
  Na  Na3  1  0.72369561  0.37817247  0.24252264  1.0
  Cl  Cl4  1  0.81895647  0.00000000  0.77239668  1.0
  Cl  Cl5  1  0.57717017  0.00000000  0.21310741  1.0
  Cl  Cl6  1  0.64550606  0.00000000  0.97918910  1.0
  Cl  Cl7  1  0.65774532  0.50000000  0.51101165  1.0
