# generated using pymatgen
data_NaCl
_symmetry_space_group_name_H-M   'P 1'
_cell_length_a   4.27639275
_cell_length_b   6.00040523
_cell_length_c   15.58025050
_cell_angle_alpha   90.00000000
_cell_angle_beta   90.00000000
_cell_angle_gamma   90.00000000
_symmetry_Int_Tables_number   1
_chemical_formula_structural   NaCl
_chemical_formula_sum   'Na4 Cl4'
_cell_volume   399.79062106
_cell_formula_units_Z   4
loop_
 _symmetry_equiv_pos_site_id
 _symmetry_equiv_pos_as_xyz
  1  'x, y, z'
loop_
 _atom_site_type_symbol
 _atom_site_label
 _atom_site_symmetry_multiplicity
 _atom_site_fract_x
 _atom_site_fract_y
 _atom_site_fract_z
 _atom_site_occupancy
  Na  Na0  1  0.41164934  0.50000000  0.00000000  1.0
  Na  Na1  1  0.76435561  0.50000000  0.50000000  1.0
  Na  Na2  1  0.82851837  0.50000000  0.00000000  1.0
  Na  Na3  1  0.16148188  0.50000000  0.50000000  1.0
  Cl  Cl4  1  0.99997248  0.54501918  0.92715802  1.0
  Cl  Cl5  1  0.01774261  0.79909722  0.95142764  1.0
  Cl  Cl6  1  0.21082227  0.99988828  0.68592141  1.0
  Cl  Cl7  1  0.34818142  0.55128380  0.30060037  1.0
