# generated using pymatgen
data_NaCl
_symmetry_space_group_name_H-M   'P 1'
_cell_length_a   6.21134334
_cell_length_b   6.21134334
_cell_length_c   8.98953885
_cell_angle_alpha   90.00000000
_cell_angle_beta   90.00000000
_cell_angle_gamma   90.00000000
_symmetry_Int_Tables_number   1
_chemical_formula_structural   NaCl
_chemical_formula_sum   'Na4 Cl4'
_cell_volume   346.82347540
_cell_formula_units_Z   4
loop_
 _symmetry_equiv_pos_site_id
 _symmetry_equiv_pos_as_xyz
  1  'x, y, z'
loop_
 _atom_site_type_symbol
 _atom_site_label
 _atom_site_symmetry_multiplicity
 _atom_site_fract_x
 _atom_site_fract_y
 _atom_site_fract_z
 _atom_site_occupancy
  Na  Na0  1  0.12331024  0.86852796  0.83845317  1.0
  Na  Na1  1  0.72068166  0.21500895  0.54700810  1.0
  Na  Na2  1  0.72679690  0.52719095  0.13689399  1.0
  Na  Na3  1  0.48424200  0.38260660  0.94159212  1.0
  Cl  Cl4  1  0.94069039  0.44192499  0.80463946  1.0
  Cl  Cl5  1  0.37837127  0.53894922  0.79334942  1.0
  Cl  Cl6  1  0.53788388  0.52819055  0.01426328  1.0
  Cl  Cl7  1  0.10374436  0.29195914  0.22311237  1.0
