# generated using pymatgen
data_NaCl
_symmetry_space_group_name_H-M   'P 1'
_cell_length_a   6.23606871
_cell_length_b   6.23606871
_cell_length_c   5.93972817
_cell_angle_alpha   90.00000000
_cell_angle_beta   90.00000000
_cell_angle_gamma   90.00000000
_symmetry_Int_Tables_number   1
_chemical_formula_structural   NaCl
_chemical_formula_sum   'Na4 Cl4'
_cell_volume   230.98743348
_cell_formula_units_Z   4
loop_
 _symmetry_equiv_pos_site_id
 _symmetry_equiv_pos_as_xyz
  1  'x, y, z'
loop_
 _atom_site_type_symbol
 _atom_site_label
 _atom_site_symmetry_multiplicity
 _atom_site_fract_x
 _atom_site_fract_y
 _atom_site_fract_z
 _atom_site_occupancy
  Na  Na0  1  0.50000000  0.47642392  0.00000000  1.0
  Na  Na1  1  0.50000000  0.41038259  0.50000000  1.0
  Na  Na2  1  0.83253564  0.50000000  0.25000000  1.0
  Na  Na3  1  0.15678423  0.50000000  0.75000000  1.0
  Cl  Cl4  1  0.98191357  0.98191357  0.37500000  1.0
  Cl  Cl5  1  0.33319476  0.33319476  0.87500000  1.0
  Cl  Cl6  1  0.16376305  0.83623695  0.62500000  1.0
  Cl  Cl7  1  0.77454188  0.22545812  0.12500000  1.0
