# generated using pymatgen
data_NaCl
_symmetry_space_group_name_H-M   'P 1'
_cell_length_a   5.83102653
_cell_length_b   2.00011781
_cell_length_c   23.15802356
_cell_angle_alpha   90.00000000
_cell_angle_beta   90.00000000
_cell_angle_gamma   90.00000000
_symmetry_Int_Tables_number   1
_chemical_formula_structural   NaCl
_chemical_formula_sum   'Na4 Cl4'
_cell_volume   270.08600800
_cell_formula_units_Z   4
loop_
 _symmetry_equiv_pos_site_id
 _symmetry_equiv_pos_as_xyz
  1  'x, y, z'
loop_
 _atom_site_type_symbol
 _atom_site_label
 _atom_site_symmetry_multiplicity
 _atom_site_fract_x
 _atom_site_fract_y
 _atom_site_fract_z
 _atom_site_occupancy
  Na  Na0  1  0.00000000  0.00000000  0.62836550  1.0
  Na  Na1  1  0.50000000  0.50000000  0.99999259  1.0
  Na  Na2  1  0.00000000  0.50000000  0.52984886  1.0
  Na  Na3  1  0.50000000  0.00000000  0.72581175  1.0
  Cl  Cl4  1  0.92491764  0.66702841  0.99665851  1.0
  Cl  Cl5  1  0.51375923  0.88814639  0.60307134  1.0
  Cl  Cl6  1  0.72836741  0.46511579  0.32523388  1.0
  Cl  Cl7  1  0.86085776  0.27235982  0.06001444  1.0
