# generated using pymatgen
data_NaCl
_symmetry_space_group_name_H-M   'P 1'
_cell_length_a   2.96293471
_cell_length_b   2.96293471
_cell_length_c   22.29492418
_cell_angle_alpha   90.00000000
_cell_angle_beta   90.00000000
_cell_angle_gamma   90.00000000
_symmetry_Int_Tables_number   1
_chemical_formula_structural   NaCl
_chemical_formula_sum   'Na4 Cl4'
_cell_volume   195.72674020
_cell_formula_units_Z   4
loop_
 _symmetry_equiv_pos_site_id
 _symmetry_equiv_pos_as_xyz
  1  'x, y, z'
loop_
 _atom_site_type_symbol
 _atom_site_label
 _atom_site_symmetry_multiplicity
 _atom_site_fract_x
 _atom_site_fract_y
 _atom_site_fract_z
 _atom_site_occupancy
  Na  Na0  1  0.49967308  0.49967308  0.27469114  1.0
  Na  Na1  1  0.15063795  0.15063795  0.93092946  1.0
  Na  Na2  1  0.56713565  0.43286435  0.10610576  1.0
  Na  Na3  1  0.31539732  0.68460268  0.97384150  1.0
  Cl  Cl4  1  0.00000000  0.50000000  0.47743642  1.0
  Cl  Cl5  1  0.00000000  0.50000000  0.64909603  1.0
  Cl  Cl6  1  0.50000000  0.00000000  0.68849750  1.0
  Cl  Cl7  1  0.50000000  0.00000000  0.91391196  1.0
