# generated using pymatgen
data_NaCl
_symmetry_space_group_name_H-M   'P 1'
_cell_length_a   4.78860810
_cell_length_b   4.78860810
_cell_length_c   4.78860810
_cell_angle_alpha   90.00000000
_cell_angle_beta   90.00000000
_cell_angle_gamma   90.00000000
_symmetry_Int_Tables_number   1
_chemical_formula_structural   NaCl
_chemical_formula_sum   'Na4 Cl4'
_cell_volume   109.80645916
_cell_formula_units_Z   4
loop_
 _symmetry_equiv_pos_site_id
 _symmetry_equiv_pos_as_xyz
  1  'x, y, z'
loop_
 _atom_site_type_symbol
 _atom_site_label
 _atom_site_symmetry_multiplicity
 _atom_site_fract_x
 _atom_site_fract_y
 _atom_site_fract_z
 _atom_site_occupancy
  Na  Na0  1  0.70735621  0.70735621  0.70735621  1.0
  Na  Na1  1  0.68212988  0.18212988  0.31787012  1.0
  Na  Na2  1  0.36392837  0.13607163  0.86392837  1.0
  Na  Na3  1  0.82729780  0.17270220  0.67270220  1.0
  Cl  Cl4  1  0.55590877  0.55590877  0.55590877  1.0
  Cl  Cl5  1  0.10207620  0.60207620  0.89792380  1.0
  Cl  Cl6  1  0.63512938  0.86487062  0.13512938  1.0
  Cl  Cl7  1  0.03237737  0.96762263  0.46762263  1.0
