# generated using pymatgen
data_NaCl
_symmetry_space_group_name_H-M   'P 1'
_cell_length_a   5.59062607
_cell_length_b   5.59062607
_cell_length_c   9.60912454
_cell_angle_alpha   90.00000000
_cell_angle_beta   90.00000000
_cell_angle_gamma   90.00000000
_symmetry_Int_Tables_number   1
_chemical_formula_structural   NaCl
_chemical_formula_sum   'Na4 Cl4'
_cell_volume   300.33414701
_cell_formula_units_Z   4
loop_
 _symmetry_equiv_pos_site_id
 _symmetry_equiv_pos_as_xyz
  1  'x, y, z'
loop_
 _atom_site_type_symbol
 _atom_site_label
 _atom_site_symmetry_multiplicity
 _atom_site_fract_x
 _atom_site_fract_y
 _atom_site_fract_z
 _atom_site_occupancy
  Na  Na0  1  0.72913398  0.21517597  0.30003162  1.0
  Na  Na1  1  0.45594194  0.40981601  0.88328583  1.0
  Na  Na2  1  0.61297449  0.65964844  0.04832404  1.0
  Na  Na3  1  0.20699402  0.56782658  0.41882803  1.0
  Cl  Cl4  1  0.73434004  0.08426983  0.48508652  1.0
  Cl  Cl5  1  0.68263048  0.29230365  0.12222052  1.0
  Cl  Cl6  1  0.89003941  0.47793134  0.41244209  1.0
  Cl  Cl7  1  0.58548129  0.10643492  0.67047925  1.0
