# generated using pymatgen
data_NaCl
_symmetry_space_group_name_H-M   'P 1'
_cell_length_a   2.63565615
_cell_length_b   2.63565615
_cell_length_c   23.54180450
_cell_angle_alpha   90.00000000
_cell_angle_beta   90.00000000
_cell_angle_gamma   90.00000000
_symmetry_Int_Tables_number   1
_chemical_formula_structural   NaCl
_chemical_formula_sum   'Na4 Cl4'
_cell_volume   163.53746114
_cell_formula_units_Z   4
loop_
 _symmetry_equiv_pos_site_id
 _symmetry_equiv_pos_as_xyz
  1  'x, y, z'
loop_
 _atom_site_type_symbol
 _atom_site_label
 _atom_site_symmetry_multiplicity
 _atom_site_fract_x
 _atom_site_fract_y
 _atom_site_fract_z
 _atom_site_occupancy
  Na  Na0  1  0.73008715  0.23486479  0.16463443  1.0
  Na  Na1  1  0.19296489  0.40954414  0.83665448  1.0
  Na  Na2  1  0.65114256  0.59270199  0.94603983  1.0
  Na  Na3  1  0.12580897  0.65831868  0.50628305  1.0
  Cl  Cl4  1  0.67519756  0.05905933  0.40103963  1.0
  Cl  Cl5  1  0.63619960  0.26085916  0.70618163  1.0
  Cl  Cl6  1  0.87241723  0.49978138  0.43791157  1.0
  Cl  Cl7  1  0.63522463  0.03997578  0.74950478  1.0
