# generated using pymatgen
data_NaCl
_symmetry_space_group_name_H-M   'P 1'
_cell_length_a   6.49385667
_cell_length_b   6.49385667
_cell_length_c   6.49385667
_cell_angle_alpha   90.00000000
_cell_angle_beta   90.00000000
_cell_angle_gamma   90.00000000
_symmetry_Int_Tables_number   1
_chemical_formula_structural   NaCl
_chemical_formula_sum   'Na4 Cl4'
_cell_volume   273.84706863
_cell_formula_units_Z   4
loop_
 _symmetry_equiv_pos_site_id
 _symmetry_equiv_pos_as_xyz
  1  'x, y, z'
loop_
 _atom_site_type_symbol
 _atom_site_label
 _atom_site_symmetry_multiplicity
 _atom_site_fract_x
 _atom_site_fract_y
 _atom_site_fract_z
 _atom_site_occupancy
  Na  Na0  1  0.90008721  0.90008721  0.90008721  1.0
  Na  Na1  1  0.77557860  0.27557860  0.22442140  1.0
  Na  Na2  1  0.75037714  0.74962286  0.25037714  1.0
  Na  Na3  1  0.95525256  0.04474744  0.54474744  1.0
  Cl  Cl4  1  0.68168035  0.68168035  0.68168035  1.0
  Cl  Cl5  1  0.27217260  0.77217260  0.72782740  1.0
  Cl  Cl6  1  0.55034650  0.94965350  0.05034650  1.0
  Cl  Cl7  1  0.39275494  0.60724506  0.10724506  1.0
