# generated using pymatgen
data_NaCl
_symmetry_space_group_name_H-M   'P 1'
_cell_length_a   5.39732302
_cell_length_b   7.90384293
_cell_length_c   9.26004015
_cell_angle_alpha   90.00000000
_cell_angle_beta   105.32080678
_cell_angle_gamma   90.00000000
_symmetry_Int_Tables_number   1
_chemical_formula_structural   NaCl
_chemical_formula_sum   'Na4 Cl4'
_cell_volume   380.99080195
_cell_formula_units_Z   4
loop_
 _symmetry_equiv_pos_site_id
 _symmetry_equiv_pos_as_xyz
  1  'x, y, z'
loop_
 _atom_site_type_symbol
 _atom_site_label
 _atom_site_symmetry_multiplicity
 _atom_site_fract_x
 _atom_site_fract_y
 _atom_site_fract_z
 _atom_site_occupancy
  Na  Na0  1  0.72735938  0.00000000  0.31577444  1.0
  Na  Na1  1  0.47579198  0.50000000  0.93670016  1.0
  Na  Na2  1  0.67201357  0.00000000  0.66136412  1.0
  Na  Na3  1  0.16149252  0.50000000  0.43469548  1.0
  Cl  Cl4  1  0.67670077  0.14523563  0.61215647  1.0
  Cl  Cl5  1  0.64177950  0.97885123  0.05804072  1.0
  Cl  Cl6  1  0.86316877  0.60280049  0.26871904  1.0
  Cl  Cl7  1  0.44013653  0.87589762  0.85739495  1.0
