# generated using pymatgen
data_NaCl
_symmetry_space_group_name_H-M   'P 1'
_cell_length_a   4.22642253
_cell_length_b   4.65802951
_cell_length_c   9.95910011
_cell_angle_alpha   90.00000000
_cell_angle_beta   90.00000000
_cell_angle_gamma   90.00000000
_symmetry_Int_Tables_number   1
_chemical_formula_structural   NaCl
_chemical_formula_sum   'Na4 Cl4'
_cell_volume   196.06282067
_cell_formula_units_Z   4
loop_
 _symmetry_equiv_pos_site_id
 _symmetry_equiv_pos_as_xyz
  1  'x, y, z'
loop_
 _atom_site_type_symbol
 _atom_site_label
 _atom_site_symmetry_multiplicity
 _atom_site_fract_x
 _atom_site_fract_y
 _atom_site_fract_z
 _atom_site_occupancy
  Na  Na0  1  0.69092286  0.59255006  0.10968786  1.0
  Na  Na1  1  0.25520082  0.32477062  0.81210152  1.0
  Na  Na2  1  0.88828174  0.60917592  0.68336298  1.0
  Na  Na3  1  0.03105811  0.22037887  0.24523857  1.0
  Cl  Cl4  1  0.66387038  0.10385977  0.56045843  1.0
  Cl  Cl5  1  0.79502815  0.37792794  0.87601563  1.0
  Cl  Cl6  1  0.96850466  0.94083238  0.69426460  1.0
  Cl  Cl7  1  0.55832272  0.59648948  0.27776128  1.0
