# generated using pymatgen
data_NaCl
_symmetry_space_group_name_H-M   'P 1'
_cell_length_a   4.15061438
_cell_length_b   4.15061438
_cell_length_c   9.18770044
_cell_angle_alpha   90.00000000
_cell_angle_beta   90.00000000
_cell_angle_gamma   90.00000000
_symmetry_Int_Tables_number   1
_chemical_formula_structural   NaCl
_chemical_formula_sum   'Na4 Cl4'
_cell_volume   158.28202563
_cell_formula_units_Z   4
loop_
 _symmetry_equiv_pos_site_id
 _symmetry_equiv_pos_as_xyz
  1  'x, y, z'
loop_
 _atom_site_type_symbol
 _atom_site_label
 _atom_site_symmetry_multiplicity
 _atom_site_fract_x
 _atom_site_fract_y
 _atom_site_fract_z
 _atom_site_occupancy
  Na  Na0  1  0.61011324  0.58854379  0.12875375  1.0
  Na  Na1  1  0.44253450  0.34356801  0.86639166  1.0
  Na  Na2  1  0.50757870  0.47630071  0.51812199  1.0
  Na  Na3  1  0.09316142  0.68280504  0.03647139  1.0
  Cl  Cl4  1  0.69434729  0.09045435  0.41371358  1.0
  Cl  Cl5  1  0.59409711  0.33907066  0.16096756  1.0
  Cl  Cl6  1  0.79401070  0.55740911  0.92595180  1.0
  Cl  Cl7  1  0.45237669  0.01703274  0.99848196  1.0
