# generated using pymatgen
data_NaCl
_symmetry_space_group_name_H-M   'P 1'
_cell_length_a   2.58145236
_cell_length_b   13.09712770
_cell_length_c   7.57496948
_cell_angle_alpha   90.00000000
_cell_angle_beta   90.00000000
_cell_angle_gamma   90.00000000
_symmetry_Int_Tables_number   1
_chemical_formula_structural   NaCl
_chemical_formula_sum   'Na4 Cl4'
_cell_volume   256.10677305
_cell_formula_units_Z   4
loop_
 _symmetry_equiv_pos_site_id
 _symmetry_equiv_pos_as_xyz
  1  'x, y, z'
loop_
 _atom_site_type_symbol
 _atom_site_label
 _atom_site_symmetry_multiplicity
 _atom_site_fract_x
 _atom_site_fract_y
 _atom_site_fract_z
 _atom_site_occupancy
  Na  Na0  1  0.64802142  0.25000000  0.42720404  1.0
  Na  Na1  1  0.35542461  0.75000000  0.76949786  1.0
  Na  Na2  1  0.49317927  0.75000000  0.24158825  1.0
  Na  Na3  1  0.86574860  0.25000000  0.04366736  1.0
  Cl  Cl4  1  0.38183237  0.25000000  0.57542882  1.0
  Cl  Cl5  1  0.11559120  0.75000000  0.09341647  1.0
  Cl  Cl6  1  0.41051859  0.75000000  0.61473893  1.0
  Cl  Cl7  1  0.63010502  0.25000000  0.68343135  1.0
