# generated using pymatgen
data_NaCl
_symmetry_space_group_name_H-M   'P 1'
_cell_length_a   3.96695523
_cell_length_b   3.96695523
_cell_length_c   25.37547409
_cell_angle_alpha   90.00000000
_cell_angle_beta   90.00000000
_cell_angle_gamma   120.00000000
_symmetry_Int_Tables_number   1
_chemical_formula_structural   NaCl
_chemical_formula_sum   'Na4 Cl4'
_cell_volume   345.82739632
_cell_formula_units_Z   4
loop_
 _symmetry_equiv_pos_site_id
 _symmetry_equiv_pos_as_xyz
  1  'x, y, z'
loop_
 _atom_site_type_symbol
 _atom_site_label
 _atom_site_symmetry_multiplicity
 _atom_site_fract_x
 _atom_site_fract_y
 _atom_site_fract_z
 _atom_site_occupancy
  Na  Na0  1  0.00000000  0.00000000  0.10932841  1.0
  Na  Na1  1  0.33333333  0.66666667  0.41087411  1.0
  Na  Na2  1  0.66666667  0.33333333  0.79290980  1.0
  Na  Na3  1  0.66666667  0.33333333  0.58779124  1.0
  Cl  Cl4  1  0.00000000  0.00000000  0.48444998  1.0
  Cl  Cl5  1  0.00000000  0.00000000  0.17125810  1.0
  Cl  Cl6  1  0.33333333  0.66666667  0.15380706  1.0
  Cl  Cl7  1  0.66666667  0.33333333  0.97944746  1.0
