# generated using pymatgen
data_NaCl
_symmetry_space_group_name_H-M   'P 1'
_cell_length_a   2.66295523
_cell_length_b   2.66295523
_cell_length_c   10.76583989
_cell_angle_alpha   90.00000000
_cell_angle_beta   90.00000000
_cell_angle_gamma   90.00000000
_symmetry_Int_Tables_number   1
_chemical_formula_structural   NaCl
_chemical_formula_sum   'Na4 Cl4'
_cell_volume   76.34412938
_cell_formula_units_Z   4
loop_
 _symmetry_equiv_pos_site_id
 _symmetry_equiv_pos_as_xyz
  1  'x, y, z'
loop_
 _atom_site_type_symbol
 _atom_site_label
 _atom_site_symmetry_multiplicity
 _atom_site_fract_x
 _atom_site_fract_y
 _atom_site_fract_z
 _atom_site_occupancy
  Na  Na0  1  0.71853678  0.53352461  0.52822186  1.0
  Na  Na1  1  0.55937199  0.11375968  0.74512825  1.0
  Na  Na2  1  0.94677339  0.89932751  0.60503416  1.0
  Na  Na3  1  0.08146240  0.92910570  0.20605814  1.0
  Cl  Cl4  1  0.68764728  0.48187998  0.77672220  1.0
  Cl  Cl5  1  0.31022560  0.11751145  0.35258612  1.0
  Cl  Cl6  1  0.87712775  0.66455412  0.83290161  1.0
  Cl  Cl7  1  0.93414194  0.89083169  0.74884750  1.0
