# generated using pymatgen
data_NaCl
_symmetry_space_group_name_H-M   'P 1'
_cell_length_a   5.14661231
_cell_length_b   3.16676049
_cell_length_c   9.93528786
_cell_angle_alpha   90.00000000
_cell_angle_beta   79.78784915
_cell_angle_gamma   90.00000000
_symmetry_Int_Tables_number   1
_chemical_formula_structural   NaCl
_chemical_formula_sum   'Na4 Cl4'
_cell_volume   159.36097117
_cell_formula_units_Z   4
loop_
 _symmetry_equiv_pos_site_id
 _symmetry_equiv_pos_as_xyz
  1  'x, y, z'
loop_
 _atom_site_type_symbol
 _atom_site_label
 _atom_site_symmetry_multiplicity
 _atom_site_fract_x
 _atom_site_fract_y
 _atom_site_fract_z
 _atom_site_occupancy
  Na  Na0  1  0.73202688  0.56148559  0.23523974  1.0
  Na  Na1  1  0.81071358  0.39581060  0.86547661  1.0
  Na  Na2  1  0.15415272  0.83288847  0.74977454  1.0
  Na  Na3  1  0.99350248  0.36580453  0.47858910  1.0
  Cl  Cl4  1  0.70727225  0.09079776  0.36939620  1.0
  Cl  Cl5  1  0.28066662  0.28096624  0.83160753  1.0
  Cl  Cl6  1  0.94079453  0.65233892  0.12181242  1.0
  Cl  Cl7  1  0.49917437  0.96649690  0.43596497  1.0
