# generated using pymatgen
data_NaCl
_symmetry_space_group_name_H-M   'P 1'
_cell_length_a   3.77918296
_cell_length_b   3.77918296
_cell_length_c   21.18585355
_cell_angle_alpha   90.00000000
_cell_angle_beta   90.00000000
_cell_angle_gamma   90.00000000
_symmetry_Int_Tables_number   1
_chemical_formula_structural   NaCl
_chemical_formula_sum   'Na4 Cl4'
_cell_volume   302.58110275
_cell_formula_units_Z   4
loop_
 _symmetry_equiv_pos_site_id
 _symmetry_equiv_pos_as_xyz
  1  'x, y, z'
loop_
 _atom_site_type_symbol
 _atom_site_label
 _atom_site_symmetry_multiplicity
 _atom_site_fract_x
 _atom_site_fract_y
 _atom_site_fract_z
 _atom_site_occupancy
  Na  Na0  1  0.64169803  0.76182544  0.41196477  1.0
  Na  Na1  1  0.53168428  0.12565868  0.61561199  1.0
  Na  Na2  1  0.53241823  0.14659813  0.49551607  1.0
  Na  Na3  1  0.25858601  0.72346480  0.63545330  1.0
  Cl  Cl4  1  0.42024072  0.07123768  0.92055262  1.0
  Cl  Cl5  1  0.83319016  0.45843987  0.08547270  1.0
  Cl  Cl6  1  0.55193312  0.49018428  0.08570540  1.0
  Cl  Cl7  1  0.95820558  0.97934210  0.23374327  1.0
