# generated using pymatgen
data_NaCl
_symmetry_space_group_name_H-M   'P 1'
_cell_length_a   5.48205488
_cell_length_b   12.93610926
_cell_length_c   9.45147689
_cell_angle_alpha   90.00000000
_cell_angle_beta   30.58059263
_cell_angle_gamma   90.00000000
_symmetry_Int_Tables_number   1
_chemical_formula_structural   NaCl
_chemical_formula_sum   'Na4 Cl4'
_cell_volume   340.99735558
_cell_formula_units_Z   4
loop_
 _symmetry_equiv_pos_site_id
 _symmetry_equiv_pos_as_xyz
  1  'x, y, z'
loop_
 _atom_site_type_symbol
 _atom_site_label
 _atom_site_symmetry_multiplicity
 _atom_site_fract_x
 _atom_site_fract_y
 _atom_site_fract_z
 _atom_site_occupancy
  Na  Na0  1  0.06649703  0.63693951  0.19946486  1.0
  Na  Na1  1  0.51609488  0.98143351  0.94841174  1.0
  Na  Na2  1  0.32545304  0.83915196  0.75788611  1.0
  Na  Na3  1  0.45586366  0.95565632  0.49815580  1.0
  Cl  Cl4  1  0.52745003  0.13637841  0.62109748  1.0
  Cl  Cl5  1  0.31508270  0.80468859  0.38078578  1.0
  Cl  Cl6  1  0.16560439  0.76101420  0.37233085  1.0
  Cl  Cl7  1  0.60031574  0.46257348  0.50820617  1.0
