# generated using pymatgen
data_NaCl
_symmetry_space_group_name_H-M   'P 1'
_cell_length_a   6.56904002
_cell_length_b   13.59878466
_cell_length_c   9.10459614
_cell_angle_alpha   90.00000000
_cell_angle_beta   26.21974994
_cell_angle_gamma   90.00000000
_symmetry_Int_Tables_number   1
_chemical_formula_structural   NaCl
_chemical_formula_sum   'Na4 Cl4'
_cell_volume   359.33809240
_cell_formula_units_Z   4
loop_
 _symmetry_equiv_pos_site_id
 _symmetry_equiv_pos_as_xyz
  1  'x, y, z'
loop_
 _atom_site_type_symbol
 _atom_site_label
 _atom_site_symmetry_multiplicity
 _atom_site_fract_x
 _atom_site_fract_y
 _atom_site_fract_z
 _atom_site_occupancy
  Na  Na0  1  0.46055162  0.65075676  0.63522954  1.0
  Na  Na1  1  0.65755721  0.40336041  0.94752300  1.0
  Na  Na2  1  0.82760017  0.66238067  0.79727034  1.0
  Na  Na3  1  0.26453535  0.81904714  0.82405062  1.0
  Cl  Cl4  1  0.56896972  0.15518855  0.60619420  1.0
  Cl  Cl5  1  0.30869794  0.18475753  0.47282536  1.0
  Cl  Cl6  1  0.59454500  0.78231960  0.50638975  1.0
  Cl  Cl7  1  0.96382343  0.44115869  0.34242649  1.0
