# generated using pymatgen
data_NaCl
_symmetry_space_group_name_H-M   'P 1'
_cell_length_a   5.40739349
_cell_length_b   5.40739349
_cell_length_c   5.40739349
_cell_angle_alpha   90.00000000
_cell_angle_beta   90.00000000
_cell_angle_gamma   90.00000000
_symmetry_Int_Tables_number   1
_chemical_formula_structural   NaCl
_chemical_formula_sum   'Na4 Cl4'
_cell_volume   158.11166846
_cell_formula_units_Z   4
loop_
 _symmetry_equiv_pos_site_id
 _symmetry_equiv_pos_as_xyz
  1  'x, y, z'
loop_
 _atom_site_type_symbol
 _atom_site_label
 _atom_site_symmetry_multiplicity
 _atom_site_fract_x
 _atom_site_fract_y
 _atom_site_fract_z
 _atom_site_occupancy
  Na  Na0  1  0.67707655  0.67707655  0.67707655  1.0
  Na  Na1  1  0.63864522  0.63864522  0.36135478  1.0
  Na  Na2  1  0.26946541  0.73053459  0.26946541  1.0
  Na  Na3  1  0.86647571  0.13352429  0.13352429  1.0
  Cl  Cl4  1  0.35312559  0.35312559  0.35312559  1.0
  Cl  Cl5  1  0.47425944  0.47425944  0.52574056  1.0
  Cl  Cl6  1  0.81062200  0.18937800  0.81062200  1.0
  Cl  Cl7  1  0.05294646  0.94705354  0.94705354  1.0
