# generated using pymatgen
data_NaCl
_symmetry_space_group_name_H-M   'P 1'
_cell_length_a   5.01785836
_cell_length_b   4.43891279
_cell_length_c   14.66390226
_cell_angle_alpha   90.00000000
_cell_angle_beta   70.33261662
_cell_angle_gamma   90.00000000
_symmetry_Int_Tables_number   1
_chemical_formula_structural   NaCl
_chemical_formula_sum   'Na4 Cl4'
_cell_volume   307.56700730
_cell_formula_units_Z   4
loop_
 _symmetry_equiv_pos_site_id
 _symmetry_equiv_pos_as_xyz
  1  'x, y, z'
loop_
 _atom_site_type_symbol
 _atom_site_label
 _atom_site_symmetry_multiplicity
 _atom_site_fract_x
 _atom_site_fract_y
 _atom_site_fract_z
 _atom_site_occupancy
  Na  Na0  1  0.79829896  0.00000000  0.22379879  1.0
  Na  Na1  1  0.19375002  0.50000000  0.45725884  1.0
  Na  Na2  1  0.50104366  0.00000000  0.72429824  1.0
  Na  Na3  1  0.80162802  0.50000000  0.89846530  1.0
  Cl  Cl4  1  0.66564067  0.05830565  0.52741356  1.0
  Cl  Cl5  1  0.38979038  0.30775517  0.25680204  1.0
  Cl  Cl6  1  0.87640223  0.67694166  0.23060960  1.0
  Cl  Cl7  1  0.38094408  0.07327651  0.99984396  1.0
