# generated using pymatgen
data_NaCl
_symmetry_space_group_name_H-M   'P 1'
_cell_length_a   7.53484941
_cell_length_b   3.83501880
_cell_length_c   12.56577110
_cell_angle_alpha   90.00000000
_cell_angle_beta   86.64627470
_cell_angle_gamma   90.00000000
_symmetry_Int_Tables_number   1
_chemical_formula_structural   NaCl
_chemical_formula_sum   'Na4 Cl4'
_cell_volume   362.48230315
_cell_formula_units_Z   4
loop_
 _symmetry_equiv_pos_site_id
 _symmetry_equiv_pos_as_xyz
  1  'x, y, z'
loop_
 _atom_site_type_symbol
 _atom_site_label
 _atom_site_symmetry_multiplicity
 _atom_site_fract_x
 _atom_site_fract_y
 _atom_site_fract_z
 _atom_site_occupancy
  Na  Na0  1  0.75648429  0.73837131  0.29547269  1.0
  Na  Na1  1  0.78620040  0.43722828  0.58046323  1.0
  Na  Na2  1  0.13919564  0.04928181  0.75557633  1.0
  Na  Na3  1  0.69409460  0.32670650  0.33232264  1.0
  Cl  Cl4  1  0.68814074  0.11707473  0.49502393  1.0
  Cl  Cl5  1  0.38025424  0.31649300  0.68515211  1.0
  Cl  Cl6  1  0.78081555  0.64186225  0.11712686  1.0
  Cl  Cl7  1  0.44683845  0.90759612  0.44749920  1.0
