# generated using pymatgen
data_NaCl
_symmetry_space_group_name_H-M   'P 1'
_cell_length_a   7.27415533
_cell_length_b   7.27415533
_cell_length_c   7.27415533
_cell_angle_alpha   90.00000000
_cell_angle_beta   90.00000000
_cell_angle_gamma   90.00000000
_symmetry_Int_Tables_number   1
_chemical_formula_structural   NaCl
_chemical_formula_sum   'Na4 Cl4'
_cell_volume   384.89982338
_cell_formula_units_Z   4
loop_
 _symmetry_equiv_pos_site_id
 _symmetry_equiv_pos_as_xyz
  1  'x, y, z'
loop_
 _atom_site_type_symbol
 _atom_site_label
 _atom_site_symmetry_multiplicity
 _atom_site_fract_x
 _atom_site_fract_y
 _atom_site_fract_z
 _atom_site_occupancy
  Na  Na0  1  0.86952341  0.86952341  0.86952341  1.0
  Na  Na1  1  0.59326314  0.09326314  0.40673686  1.0
  Na  Na2  1  0.23579264  0.26420736  0.73579264  1.0
  Na  Na3  1  0.25587119  0.74412881  0.24412881  1.0
  Cl  Cl4  1  0.72526754  0.72526754  0.72526754  1.0
  Cl  Cl5  1  0.82608293  0.32608293  0.17391707  1.0
  Cl  Cl6  1  0.68692351  0.81307649  0.18692351  1.0
  Cl  Cl7  1  0.42330434  0.57669566  0.07669566  1.0
