# generated using pymatgen
data_NaCl
_symmetry_space_group_name_H-M   'P 1'
_cell_length_a   6.59256533
_cell_length_b   2.73469590
_cell_length_c   10.07376455
_cell_angle_alpha   90.00000000
_cell_angle_beta   56.91421668
_cell_angle_gamma   90.00000000
_symmetry_Int_Tables_number   1
_chemical_formula_structural   NaCl
_chemical_formula_sum   'Na4 Cl4'
_cell_volume   152.16813773
_cell_formula_units_Z   4
loop_
 _symmetry_equiv_pos_site_id
 _symmetry_equiv_pos_as_xyz
  1  'x, y, z'
loop_
 _atom_site_type_symbol
 _atom_site_label
 _atom_site_symmetry_multiplicity
 _atom_site_fract_x
 _atom_site_fract_y
 _atom_site_fract_z
 _atom_site_occupancy
  Na  Na0  1  0.64124027  0.61113416  0.22301029  1.0
  Na  Na1  1  0.69373013  0.42538168  0.85125996  1.0
  Na  Na2  1  0.05591246  0.87261029  0.81069501  1.0
  Na  Na3  1  0.88999624  0.29256885  0.35491911  1.0
  Cl  Cl4  1  0.61858539  0.16398460  0.38997576  1.0
  Cl  Cl5  1  0.36311711  0.29340763  0.23785002  1.0
  Cl  Cl6  1  0.00175901  0.66761037  0.11123644  1.0
  Cl  Cl7  1  0.49960765  0.17748750  0.49828817  1.0
