# generated using pymatgen
data_NaCl
_symmetry_space_group_name_H-M   'P 1'
_cell_length_a   6.82740345
_cell_length_b   7.95082019
_cell_length_c   3.50921529
_cell_angle_alpha   90.00000000
_cell_angle_beta   58.13209548
_cell_angle_gamma   90.00000000
_symmetry_Int_Tables_number   1
_chemical_formula_structural   NaCl
_chemical_formula_sum   'Na4 Cl4'
_cell_volume   161.77896511
_cell_formula_units_Z   4
loop_
 _symmetry_equiv_pos_site_id
 _symmetry_equiv_pos_as_xyz
  1  'x, y, z'
loop_
 _atom_site_type_symbol
 _atom_site_label
 _atom_site_symmetry_multiplicity
 _atom_site_fract_x
 _atom_site_fract_y
 _atom_site_fract_z
 _atom_site_occupancy
  Na  Na0  1  0.89978918  0.48055015  0.48526216  1.0
  Na  Na1  1  0.45646742  0.32046758  0.34873907  1.0
  Na  Na2  1  0.06419845  0.87476273  0.53576176  1.0
  Na  Na3  1  0.17897817  0.26075745  0.03602986  1.0
  Cl  Cl4  1  0.50785434  0.00000000  0.30060230  1.0
  Cl  Cl5  1  0.70979996  0.50000000  0.37075707  1.0
  Cl  Cl6  1  0.55634775  0.00000000  0.56841493  1.0
  Cl  Cl7  1  0.14248351  0.50000000  0.33504862  1.0
