# generated using pymatgen
data_NaCl
_symmetry_space_group_name_H-M   'P 1'
_cell_length_a   6.42393108
_cell_length_b   2.04761081
_cell_length_c   12.55483124
_cell_angle_alpha   90.00000000
_cell_angle_beta   90.00000000
_cell_angle_gamma   90.00000000
_symmetry_Int_Tables_number   1
_chemical_formula_structural   NaCl
_chemical_formula_sum   'Na4 Cl4'
_cell_volume   165.14261830
_cell_formula_units_Z   4
loop_
 _symmetry_equiv_pos_site_id
 _symmetry_equiv_pos_as_xyz
  1  'x, y, z'
loop_
 _atom_site_type_symbol
 _atom_site_label
 _atom_site_symmetry_multiplicity
 _atom_site_fract_x
 _atom_site_fract_y
 _atom_site_fract_z
 _atom_site_occupancy
  Na  Na0  1  0.65823895  0.54173750  0.19177626  1.0
  Na  Na1  1  0.83447150  0.43248531  0.81778534  1.0
  Na  Na2  1  0.43708556  0.97728358  0.66557539  1.0
  Na  Na3  1  0.92827717  0.32519478  0.16493380  1.0
  Cl  Cl4  1  0.63381283  0.15377729  0.33165430  1.0
  Cl  Cl5  1  0.15904966  0.22988514  0.85856486  1.0
  Cl  Cl6  1  0.47522961  0.71716280  0.34633284  1.0
  Cl  Cl7  1  0.47874143  0.07339440  0.04669544  1.0
