# generated using pymatgen
data_NaCl
_symmetry_space_group_name_H-M   'P 1'
_cell_length_a   6.09100480
_cell_length_b   5.57449334
_cell_length_c   10.21033652
_cell_angle_alpha   90.00000000
_cell_angle_beta   48.39097183
_cell_angle_gamma   90.00000000
_symmetry_Int_Tables_number   1
_chemical_formula_structural   NaCl
_chemical_formula_sum   'Na4 Cl4'
_cell_volume   259.21371954
_cell_formula_units_Z   4
loop_
 _symmetry_equiv_pos_site_id
 _symmetry_equiv_pos_as_xyz
  1  'x, y, z'
loop_
 _atom_site_type_symbol
 _atom_site_label
 _atom_site_symmetry_multiplicity
 _atom_site_fract_x
 _atom_site_fract_y
 _atom_site_fract_z
 _atom_site_occupancy
  Na  Na0  1  0.68733130  0.73500328  0.62926233  1.0
  Na  Na1  1  0.59041075  0.15200801  0.82200057  1.0
  Na  Na2  1  0.83551576  0.50221077  0.59249110  1.0
  Na  Na3  1  0.00863873  0.11904075  0.64546016  1.0
  Cl  Cl4  1  0.19164750  0.38958110  0.08072365  1.0
  Cl  Cl5  1  0.44927581  0.03307426  0.95163897  1.0
  Cl  Cl6  1  0.24663719  0.56351434  0.34243572  1.0
  Cl  Cl7  1  0.03562959  0.29206104  0.85064079  1.0
