# generated using pymatgen
data_NaCl
_symmetry_space_group_name_H-M   'P 1'
_cell_length_a   5.22858392
_cell_length_b   2.04613585
_cell_length_c   20.46910395
_cell_angle_alpha   90.00000000
_cell_angle_beta   100.04364974
_cell_angle_gamma   90.00000000
_symmetry_Int_Tables_number   1
_chemical_formula_structural   NaCl
_chemical_formula_sum   'Na4 Cl4'
_cell_volume   215.63058875
_cell_formula_units_Z   4
loop_
 _symmetry_equiv_pos_site_id
 _symmetry_equiv_pos_as_xyz
  1  'x, y, z'
loop_
 _atom_site_type_symbol
 _atom_site_label
 _atom_site_symmetry_multiplicity
 _atom_site_fract_x
 _atom_site_fract_y
 _atom_site_fract_z
 _atom_site_occupancy
  Na  Na0  1  0.92839450  0.00000000  0.36453613  1.0
  Na  Na1  1  0.19874738  0.50000000  0.99965460  1.0
  Na  Na2  1  0.72668245  0.00000000  0.63495209  1.0
  Na  Na3  1  0.13474119  0.50000000  0.32414394  1.0
  Cl  Cl4  1  0.65706981  0.17180243  0.74070504  1.0
  Cl  Cl5  1  0.77194388  0.14969667  0.14796526  1.0
  Cl  Cl6  1  0.93987584  0.59435519  0.06107069  1.0
  Cl  Cl7  1  0.19738498  0.97925321  0.84129712  1.0
