# generated using pymatgen
data_NaCl
_symmetry_space_group_name_H-M   'P 1'
_cell_length_a   4.16079525
_cell_length_b   4.16079525
_cell_length_c   19.24261988
_cell_angle_alpha   90.00000000
_cell_angle_beta   90.00000000
_cell_angle_gamma   90.00000000
_symmetry_Int_Tables_number   1
_chemical_formula_structural   NaCl
_chemical_formula_sum   'Na4 Cl4'
_cell_volume   333.13241317
_cell_formula_units_Z   4
loop_
 _symmetry_equiv_pos_site_id
 _symmetry_equiv_pos_as_xyz
  1  'x, y, z'
loop_
 _atom_site_type_symbol
 _atom_site_label
 _atom_site_symmetry_multiplicity
 _atom_site_fract_x
 _atom_site_fract_y
 _atom_site_fract_z
 _atom_site_occupancy
  Na  Na0  1  0.61085996  0.11085996  0.17896457  1.0
  Na  Na1  1  0.79404492  0.29404492  0.09705375  1.0
  Na  Na2  1  0.59787629  0.90212371  0.26784669  1.0
  Na  Na3  1  0.50845090  0.99154910  0.44666752  1.0
  Cl  Cl4  1  0.44840327  0.94840327  0.74877238  1.0
  Cl  Cl5  1  0.31849583  0.81849583  0.63496854  1.0
  Cl  Cl6  1  0.86783977  0.63216023  0.30759765  1.0
  Cl  Cl7  1  0.43923420  0.06076580  0.54053588  1.0
