# generated using pymatgen
data_NaCl
_symmetry_space_group_name_H-M   'P 1'
_cell_length_a   2.45905063
_cell_length_b   11.65253834
_cell_length_c   14.57242224
_cell_angle_alpha   90.00000000
_cell_angle_beta   46.83088155
_cell_angle_gamma   90.00000000
_symmetry_Int_Tables_number   1
_chemical_formula_structural   NaCl
_chemical_formula_sum   'Na4 Cl4'
_cell_volume   304.54276821
_cell_formula_units_Z   4
loop_
 _symmetry_equiv_pos_site_id
 _symmetry_equiv_pos_as_xyz
  1  'x, y, z'
loop_
 _atom_site_type_symbol
 _atom_site_label
 _atom_site_symmetry_multiplicity
 _atom_site_fract_x
 _atom_site_fract_y
 _atom_site_fract_z
 _atom_site_occupancy
  Na  Na0  1  0.68034857  0.60045485  0.17246929  1.0
  Na  Na1  1  0.30152021  0.13581560  0.27582156  1.0
  Na  Na2  1  0.07361397  0.41291110  0.80676422  1.0
  Na  Na3  1  0.68800694  0.90902126  0.09411934  1.0
  Cl  Cl4  1  0.62492946  0.00000000  0.83036581  1.0
  Cl  Cl5  1  0.69301793  0.00000000  0.64042860  1.0
  Cl  Cl6  1  0.53647117  0.06242037  0.33551840  1.0
  Cl  Cl7  1  0.32092851  0.72843186  0.96287714  1.0
