# generated using pymatgen
data_NaCl
_symmetry_space_group_name_H-M   'P 1'
_cell_length_a   4.18800292
_cell_length_b   9.99768258
_cell_length_c   9.42848390
_cell_angle_alpha   90.00000000
_cell_angle_beta   83.22442653
_cell_angle_gamma   90.00000000
_symmetry_Int_Tables_number   1
_chemical_formula_structural   NaCl
_chemical_formula_sum   'Na4 Cl4'
_cell_volume   392.01653390
_cell_formula_units_Z   4
loop_
 _symmetry_equiv_pos_site_id
 _symmetry_equiv_pos_as_xyz
  1  'x, y, z'
loop_
 _atom_site_type_symbol
 _atom_site_label
 _atom_site_symmetry_multiplicity
 _atom_site_fract_x
 _atom_site_fract_y
 _atom_site_fract_z
 _atom_site_occupancy
  Na  Na0  1  0.66115875  0.00000000  0.14444932  1.0
  Na  Na1  1  0.78231243  0.00000000  0.39958184  1.0
  Na  Na2  1  0.58158607  0.50000000  0.39663803  1.0
  Na  Na3  1  0.44441020  0.50000000  0.73707544  1.0
  Cl  Cl4  1  0.64867883  0.00000000  0.54185942  1.0
  Cl  Cl5  1  0.35388348  0.50000000  0.21465902  1.0
  Cl  Cl6  1  0.59476197  0.50000000  0.11062836  1.0
  Cl  Cl7  1  0.96561698  0.50000000  0.94782570  1.0
