# generated using pymatgen
data_NaCl
_symmetry_space_group_name_H-M   'P 1'
_cell_length_a   8.69554342
_cell_length_b   7.16052293
_cell_length_c   2.66437348
_cell_angle_alpha   90.00000000
_cell_angle_beta   54.95959683
_cell_angle_gamma   90.00000000
_symmetry_Int_Tables_number   1
_chemical_formula_structural   NaCl
_chemical_formula_sum   'Na4 Cl4'
_cell_volume   135.82711912
_cell_formula_units_Z   4
loop_
 _symmetry_equiv_pos_site_id
 _symmetry_equiv_pos_as_xyz
  1  'x, y, z'
loop_
 _atom_site_type_symbol
 _atom_site_label
 _atom_site_symmetry_multiplicity
 _atom_site_fract_x
 _atom_site_fract_y
 _atom_site_fract_z
 _atom_site_occupancy
  Na  Na0  1  0.61662037  0.65538495  0.66309972  1.0
  Na  Na1  1  0.49440885  0.26567588  0.33320511  1.0
  Na  Na2  1  0.38986751  0.34641320  0.12103021  1.0
  Na  Na3  1  0.25782530  0.87105069  0.91537661  1.0
  Cl  Cl4  1  0.10986789  0.48931463  0.22380487  1.0
  Cl  Cl5  1  0.95949700  0.30534928  0.52758725  1.0
  Cl  Cl6  1  0.52929025  0.22290904  0.69023236  1.0
  Cl  Cl7  1  0.70696596  0.77071262  0.65007854  1.0
