# generated using pymatgen
data_NaCl
_symmetry_space_group_name_H-M   'P 1'
_cell_length_a   3.61779418
_cell_length_b   3.61779418
_cell_length_c   12.71551026
_cell_angle_alpha   90.00000000
_cell_angle_beta   90.00000000
_cell_angle_gamma   90.00000000
_symmetry_Int_Tables_number   1
_chemical_formula_structural   NaCl
_chemical_formula_sum   'Na4 Cl4'
_cell_volume   166.42612608
_cell_formula_units_Z   4
loop_
 _symmetry_equiv_pos_site_id
 _symmetry_equiv_pos_as_xyz
  1  'x, y, z'
loop_
 _atom_site_type_symbol
 _atom_site_label
 _atom_site_symmetry_multiplicity
 _atom_site_fract_x
 _atom_site_fract_y
 _atom_site_fract_z
 _atom_site_occupancy
  Na  Na0  1  0.56212252  0.00000000  0.59962876  1.0
  Na  Na1  1  0.99871668  0.00000000  0.32128351  1.0
  Na  Na2  1  0.00000000  0.73934991  0.61453293  1.0
  Na  Na3  1  0.00000000  0.10611025  0.82787247  1.0
  Cl  Cl4  1  0.00000000  0.50000000  0.33656463  1.0
  Cl  Cl5  1  0.50000000  0.00000000  0.05602667  1.0
  Cl  Cl6  1  0.00000000  0.50000000  0.73180873  1.0
  Cl  Cl7  1  0.50000000  0.00000000  0.24544636  1.0
