# generated using pymatgen
data_NaCl
_symmetry_space_group_name_H-M   'P 1'
_cell_length_a   3.45709406
_cell_length_b   11.49506016
_cell_length_c   9.87249276
_cell_angle_alpha   90.00000000
_cell_angle_beta   38.94770614
_cell_angle_gamma   90.00000000
_symmetry_Int_Tables_number   1
_chemical_formula_structural   NaCl
_chemical_formula_sum   'Na4 Cl4'
_cell_volume   246.62160844
_cell_formula_units_Z   4
loop_
 _symmetry_equiv_pos_site_id
 _symmetry_equiv_pos_as_xyz
  1  'x, y, z'
loop_
 _atom_site_type_symbol
 _atom_site_label
 _atom_site_symmetry_multiplicity
 _atom_site_fract_x
 _atom_site_fract_y
 _atom_site_fract_z
 _atom_site_occupancy
  Na  Na0  1  0.00000000  0.00000000  0.00000000  1.0
  Na  Na1  1  0.00000000  0.50000000  0.00000000  1.0
  Na  Na2  1  0.50000000  0.00000000  0.00000000  1.0
  Na  Na3  1  0.50000000  0.50000000  0.00000000  1.0
  Cl  Cl4  1  0.32330189  0.67306131  0.48155052  1.0
  Cl  Cl5  1  0.78945724  0.05267513  0.42315216  1.0
  Cl  Cl6  1  0.28047637  0.89748852  0.95831193  1.0
  Cl  Cl7  1  0.26001379  0.08068254  0.55648383  1.0
