# generated using pymatgen
data_NaCl
_symmetry_space_group_name_H-M   'P 1'
_cell_length_a   5.39992476
_cell_length_b   9.81597385
_cell_length_c   6.20435538
_cell_angle_alpha   90.00000000
_cell_angle_beta   48.62497893
_cell_angle_gamma   90.00000000
_symmetry_Int_Tables_number   1
_chemical_formula_structural   NaCl
_chemical_formula_sum   'Na4 Cl4'
_cell_volume   246.78013158
_cell_formula_units_Z   4
loop_
 _symmetry_equiv_pos_site_id
 _symmetry_equiv_pos_as_xyz
  1  'x, y, z'
loop_
 _atom_site_type_symbol
 _atom_site_label
 _atom_site_symmetry_multiplicity
 _atom_site_fract_x
 _atom_site_fract_y
 _atom_site_fract_z
 _atom_site_occupancy
  Na  Na0  1  0.00000000  0.00000000  0.00000000  1.0
  Na  Na1  1  0.00000000  0.50000000  0.50000000  1.0
  Na  Na2  1  0.50000000  0.00000000  0.00000000  1.0
  Na  Na3  1  0.50000000  0.50000000  0.50000000  1.0
  Cl  Cl4  1  0.22324468  0.71116680  0.42986009  1.0
  Cl  Cl5  1  0.95802482  0.89482043  0.73749671  1.0
  Cl  Cl6  1  0.35426525  0.86643888  0.64367417  1.0
  Cl  Cl7  1  0.15921043  0.10399730  0.09145177  1.0
