# generated using pymatgen
data_NaCl
_symmetry_space_group_name_H-M   'P 1'
_cell_length_a   4.43467804
_cell_length_b   4.43467804
_cell_length_c   17.31205934
_cell_angle_alpha   90.00000000
_cell_angle_beta   90.00000000
_cell_angle_gamma   90.00000000
_symmetry_Int_Tables_number   1
_chemical_formula_structural   NaCl
_chemical_formula_sum   'Na4 Cl4'
_cell_volume   340.46535264
_cell_formula_units_Z   4
loop_
 _symmetry_equiv_pos_site_id
 _symmetry_equiv_pos_as_xyz
  1  'x, y, z'
loop_
 _atom_site_type_symbol
 _atom_site_label
 _atom_site_symmetry_multiplicity
 _atom_site_fract_x
 _atom_site_fract_y
 _atom_site_fract_z
 _atom_site_occupancy
  Na  Na0  1  0.60946260  0.00125274  0.08275586  1.0
  Na  Na1  1  0.80253563  0.59666416  0.98629502  1.0
  Na  Na2  1  0.56001718  0.85265985  0.32427583  1.0
  Na  Na3  1  0.40704802  0.17055058  0.01749977  1.0
  Cl  Cl4  1  0.42853995  0.63138196  0.42957004  1.0
  Cl  Cl5  1  0.92591628  0.48879827  0.20697183  1.0
  Cl  Cl6  1  0.39301326  0.52994218  0.65158070  1.0
  Cl  Cl7  1  0.27890678  0.57365088  0.20533851  1.0
