# generated using pymatgen
data_NaCl
_symmetry_space_group_name_H-M   'P 1'
_cell_length_a   4.52377263
_cell_length_b   12.87497079
_cell_length_c   10.02319603
_cell_angle_alpha   90.00000000
_cell_angle_beta   23.30031467
_cell_angle_gamma   90.00000000
_symmetry_Int_Tables_number   1
_chemical_formula_structural   NaCl
_chemical_formula_sum   'Na4 Cl4'
_cell_volume   230.91664255
_cell_formula_units_Z   4
loop_
 _symmetry_equiv_pos_site_id
 _symmetry_equiv_pos_as_xyz
  1  'x, y, z'
loop_
 _atom_site_type_symbol
 _atom_site_label
 _atom_site_symmetry_multiplicity
 _atom_site_fract_x
 _atom_site_fract_y
 _atom_site_fract_z
 _atom_site_occupancy
  Na  Na0  1  0.00000000  0.29745884  0.00000000  1.0
  Na  Na1  1  0.50000000  0.42464589  0.00000000  1.0
  Na  Na2  1  0.00000000  0.00063488  0.50000000  1.0
  Na  Na3  1  0.50000000  0.30516826  0.50000000  1.0
  Cl  Cl4  1  0.00000000  0.65026387  0.00000000  1.0
  Cl  Cl5  1  0.50000000  0.15926246  0.00000000  1.0
  Cl  Cl6  1  0.00000000  0.33808041  0.50000000  1.0
  Cl  Cl7  1  0.50000000  0.72726657  0.50000000  1.0
