# generated using pymatgen
data_NaCl
_symmetry_space_group_name_H-M   'P 1'
_cell_length_a   6.15906101
_cell_length_b   6.15906101
_cell_length_c   6.15906101
_cell_angle_alpha   90.00000000
_cell_angle_beta   90.00000000
_cell_angle_gamma   90.00000000
_symmetry_Int_Tables_number   1
_chemical_formula_structural   NaCl
_chemical_formula_sum   'Na4 Cl4'
_cell_volume   233.63802068
_cell_formula_units_Z   4
loop_
 _symmetry_equiv_pos_site_id
 _symmetry_equiv_pos_as_xyz
  1  'x, y, z'
loop_
 _atom_site_type_symbol
 _atom_site_label
 _atom_site_symmetry_multiplicity
 _atom_site_fract_x
 _atom_site_fract_y
 _atom_site_fract_z
 _atom_site_occupancy
  Na  Na0  1  0.77587261  0.77587261  0.77587261  1.0
  Na  Na1  1  0.36101539  0.86101539  0.63898461  1.0
  Na  Na2  1  0.12109643  0.37890357  0.62109643  1.0
  Na  Na3  1  0.39582859  0.60417141  0.10417141  1.0
  Cl  Cl4  1  0.34900095  0.34900095  0.34900095  1.0
  Cl  Cl5  1  0.46824508  0.96824508  0.53175492  1.0
  Cl  Cl6  1  0.47090379  0.02909621  0.97090379  1.0
  Cl  Cl7  1  0.80031972  0.19968028  0.69968028  1.0
