# generated using pymatgen
data_NaCl
_symmetry_space_group_name_H-M   'P 1'
_cell_length_a   6.18162586
_cell_length_b   6.43421805
_cell_length_c   9.91504643
_cell_angle_alpha   90.00000000
_cell_angle_beta   123.21283378
_cell_angle_gamma   90.00000000
_symmetry_Int_Tables_number   1
_chemical_formula_structural   NaCl
_chemical_formula_sum   'Na4 Cl4'
_cell_volume   329.93829079
_cell_formula_units_Z   4
loop_
 _symmetry_equiv_pos_site_id
 _symmetry_equiv_pos_as_xyz
  1  'x, y, z'
loop_
 _atom_site_type_symbol
 _atom_site_label
 _atom_site_symmetry_multiplicity
 _atom_site_fract_x
 _atom_site_fract_y
 _atom_site_fract_z
 _atom_site_occupancy
  Na  Na0  1  0.00000000  0.24262123  0.00000000  1.0
  Na  Na1  1  0.50000000  0.37672514  0.50000000  1.0
  Na  Na2  1  0.86795599  0.64350319  0.03112596  1.0
  Na  Na3  1  0.12117797  0.43811704  0.75961102  1.0
  Cl  Cl4  1  0.00000000  0.59911867  0.50000000  1.0
  Cl  Cl5  1  0.50000000  0.83458158  0.00000000  1.0
  Cl  Cl6  1  0.50000000  0.47143551  0.00000000  1.0
  Cl  Cl7  1  0.50000000  0.08974373  0.00000000  1.0
