# generated using pymatgen
data_NaCl
_symmetry_space_group_name_H-M   'P 1'
_cell_length_a   6.35303771
_cell_length_b   8.19997492
_cell_length_c   2.61725898
_cell_angle_alpha   90.00000000
_cell_angle_beta   90.00000000
_cell_angle_gamma   90.00000000
_symmetry_Int_Tables_number   1
_chemical_formula_structural   NaCl
_chemical_formula_sum   'Na4 Cl4'
_cell_volume   136.34545195
_cell_formula_units_Z   4
loop_
 _symmetry_equiv_pos_site_id
 _symmetry_equiv_pos_as_xyz
  1  'x, y, z'
loop_
 _atom_site_type_symbol
 _atom_site_label
 _atom_site_symmetry_multiplicity
 _atom_site_fract_x
 _atom_site_fract_y
 _atom_site_fract_z
 _atom_site_occupancy
  Na  Na0  1  0.04727355  0.10154149  0.33092504  1.0
  Na  Na1  1  0.28926951  0.15697551  0.67745168  1.0
  Na  Na2  1  0.44347734  0.42434507  0.39690812  1.0
  Na  Na3  1  0.36149056  0.50150948  0.85341533  1.0
  Cl  Cl4  1  0.13898624  0.55512878  0.48020240  1.0
  Cl  Cl5  1  0.27335281  0.15841481  0.21245526  1.0
  Cl  Cl6  1  0.28603152  0.24638594  0.00277764  1.0
  Cl  Cl7  1  0.41145511  0.98495647  0.53276472  1.0
