# generated using pymatgen
data_NaCl
_symmetry_space_group_name_H-M   'P 1'
_cell_length_a   5.67009479
_cell_length_b   5.67009479
_cell_length_c   7.26443179
_cell_angle_alpha   90.00000000
_cell_angle_beta   90.00000000
_cell_angle_gamma   90.00000000
_symmetry_Int_Tables_number   1
_chemical_formula_structural   NaCl
_chemical_formula_sum   'Na4 Cl4'
_cell_volume   233.55129991
_cell_formula_units_Z   4
loop_
 _symmetry_equiv_pos_site_id
 _symmetry_equiv_pos_as_xyz
  1  'x, y, z'
loop_
 _atom_site_type_symbol
 _atom_site_label
 _atom_site_symmetry_multiplicity
 _atom_site_fract_x
 _atom_site_fract_y
 _atom_site_fract_z
 _atom_site_occupancy
  Na  Na0  1  0.64887730  0.16868424  0.42930643  1.0
  Na  Na1  1  0.49043954  0.61694741  0.81443335  1.0
  Na  Na2  1  0.57280612  0.54846861  0.20555800  1.0
  Na  Na3  1  0.41202854  0.91756281  0.47923793  1.0
  Cl  Cl4  1  0.51569841  0.55087196  0.51663244  1.0
  Cl  Cl5  1  0.90069607  0.09220715  0.10970615  1.0
  Cl  Cl6  1  0.39301139  0.55739091  0.35578635  1.0
  Cl  Cl7  1  0.16421076  0.60189326  0.78464516  1.0
