# generated using pymatgen
data_NaCl
_symmetry_space_group_name_H-M   'P 1'
_cell_length_a   4.02192472
_cell_length_b   11.71842679
_cell_length_c   11.04922930
_cell_angle_alpha   90.00000000
_cell_angle_beta   138.30772910
_cell_angle_gamma   90.00000000
_symmetry_Int_Tables_number   1
_chemical_formula_structural   NaCl
_chemical_formula_sum   'Na4 Cl4'
_cell_volume   346.37100448
_cell_formula_units_Z   4
loop_
 _symmetry_equiv_pos_site_id
 _symmetry_equiv_pos_as_xyz
  1  'x, y, z'
loop_
 _atom_site_type_symbol
 _atom_site_label
 _atom_site_symmetry_multiplicity
 _atom_site_fract_x
 _atom_site_fract_y
 _atom_site_fract_z
 _atom_site_occupancy
  Na  Na0  1  0.63445026  0.37885172  0.50562257  1.0
  Na  Na1  1  0.12002250  0.56087245  0.27505339  1.0
  Na  Na2  1  0.32351577  0.93678863  0.12134154  1.0
  Na  Na3  1  0.39861407  0.08293535  0.30585026  1.0
  Cl  Cl4  1  0.19262805  0.00000000  0.37126675  1.0
  Cl  Cl5  1  0.59876868  0.50000000  0.54127107  1.0
  Cl  Cl6  1  0.45164059  0.00000000  0.60208101  1.0
  Cl  Cl7  1  0.85948318  0.50000000  0.71994961  1.0
