# generated using pymatgen
data_NaCl
_symmetry_space_group_name_H-M   'P 1'
_cell_length_a   3.98833962
_cell_length_b   10.20210721
_cell_length_c   9.07325726
_cell_angle_alpha   90.00000000
_cell_angle_beta   128.17919074
_cell_angle_gamma   90.00000000
_symmetry_Int_Tables_number   1
_chemical_formula_structural   NaCl
_chemical_formula_sum   'Na4 Cl4'
_cell_volume   290.21027433
_cell_formula_units_Z   4
loop_
 _symmetry_equiv_pos_site_id
 _symmetry_equiv_pos_as_xyz
  1  'x, y, z'
loop_
 _atom_site_type_symbol
 _atom_site_label
 _atom_site_symmetry_multiplicity
 _atom_site_fract_x
 _atom_site_fract_y
 _atom_site_fract_z
 _atom_site_occupancy
  Na  Na0  1  0.65329297  0.31441013  0.30966638  1.0
  Na  Na1  1  0.95989325  0.01734837  0.79046377  1.0
  Na  Na2  1  0.43123150  0.55633315  0.51046868  1.0
  Na  Na3  1  0.37487210  0.11180844  0.71338237  1.0
  Cl  Cl4  1  0.36124884  0.66750074  0.36572626  1.0
  Cl  Cl5  1  0.00067444  0.17345452  0.33897275  1.0
  Cl  Cl6  1  0.12518471  0.11571618  0.43232973  1.0
  Cl  Cl7  1  0.86649186  0.25738742  0.14992935  1.0
