# generated using pymatgen
data_NaCl
_symmetry_space_group_name_H-M   'P 1'
_cell_length_a   4.60999148
_cell_length_b   4.60999148
_cell_length_c   9.97574328
_cell_angle_alpha   90.00000000
_cell_angle_beta   90.00000000
_cell_angle_gamma   90.00000000
_symmetry_Int_Tables_number   1
_chemical_formula_structural   NaCl
_chemical_formula_sum   'Na4 Cl4'
_cell_volume   212.00471012
_cell_formula_units_Z   4
loop_
 _symmetry_equiv_pos_site_id
 _symmetry_equiv_pos_as_xyz
  1  'x, y, z'
loop_
 _atom_site_type_symbol
 _atom_site_label
 _atom_site_symmetry_multiplicity
 _atom_site_fract_x
 _atom_site_fract_y
 _atom_site_fract_z
 _atom_site_occupancy
  Na  Na0  1  0.58996737  0.40189551  0.57683921  1.0
  Na  Na1  1  0.91719026  0.69759723  0.83480645  1.0
  Na  Na2  1  0.49276771  0.78086658  0.30850268  1.0
  Na  Na3  1  0.14138057  0.10131550  0.25047760  1.0
  Cl  Cl4  1  0.71151327  0.69150951  0.51170939  1.0
  Cl  Cl5  1  0.99900326  0.07253964  0.04279509  1.0
  Cl  Cl6  1  0.39053385  0.56342692  0.88869029  1.0
  Cl  Cl7  1  0.16395081  0.63925619  0.60669679  1.0
