# generated using pymatgen
data_NaCl
_symmetry_space_group_name_H-M   'P 1'
_cell_length_a   6.70770255
_cell_length_b   6.70770255
_cell_length_c   8.45326214
_cell_angle_alpha   90.00000000
_cell_angle_beta   90.00000000
_cell_angle_gamma   90.00000000
_symmetry_Int_Tables_number   1
_chemical_formula_structural   NaCl
_chemical_formula_sum   'Na4 Cl4'
_cell_volume   380.33993543
_cell_formula_units_Z   4
loop_
 _symmetry_equiv_pos_site_id
 _symmetry_equiv_pos_as_xyz
  1  'x, y, z'
loop_
 _atom_site_type_symbol
 _atom_site_label
 _atom_site_symmetry_multiplicity
 _atom_site_fract_x
 _atom_site_fract_y
 _atom_site_fract_z
 _atom_site_occupancy
  Na  Na0  1  0.65692243  0.20627215  0.57191744  1.0
  Na  Na1  1  0.41199438  0.90828016  0.42048690  1.0
  Na  Na2  1  0.41307000  0.38096898  0.74431893  1.0
  Na  Na3  1  0.50454071  0.05839646  0.90034576  1.0
  Cl  Cl4  1  0.48252697  0.67727356  0.55198420  1.0
  Cl  Cl5  1  0.99913265  0.09952743  0.16638420  1.0
  Cl  Cl6  1  0.35564387  0.54870530  0.96556202  1.0
  Cl  Cl7  1  0.43427106  0.70765657  0.06628276  1.0
