# generated using pymatgen
data_NaCl
_symmetry_space_group_name_H-M   'P 1'
_cell_length_a   4.33489588
_cell_length_b   4.33489588
_cell_length_c   10.63462889
_cell_angle_alpha   90.00000000
_cell_angle_beta   90.00000000
_cell_angle_gamma   120.00000000
_symmetry_Int_Tables_number   1
_chemical_formula_structural   NaCl
_chemical_formula_sum   'Na4 Cl4'
_cell_volume   173.06542456
_cell_formula_units_Z   4
loop_
 _symmetry_equiv_pos_site_id
 _symmetry_equiv_pos_as_xyz
  1  'x, y, z'
loop_
 _atom_site_type_symbol
 _atom_site_label
 _atom_site_symmetry_multiplicity
 _atom_site_fract_x
 _atom_site_fract_y
 _atom_site_fract_z
 _atom_site_occupancy
  Na  Na0  1  0.00000000  0.00000000  0.63718367  1.0
  Na  Na1  1  0.10637102  0.58137139  0.28383132  1.0
  Na  Na2  1  0.55013362  0.35455349  0.08245365  1.0
  Na  Na3  1  0.33432258  0.10732493  0.39214602  1.0
  Cl  Cl4  1  0.33333333  0.66666667  0.39217997  1.0
  Cl  Cl5  1  0.33333333  0.66666667  0.47137125  1.0
  Cl  Cl6  1  0.33333333  0.66666667  0.58982475  1.0
  Cl  Cl7  1  0.66666667  0.33333333  0.84029541  1.0
