# generated using pymatgen
data_NaCl
_symmetry_space_group_name_H-M   'P 1'
_cell_length_a   5.26674709
_cell_length_b   5.26674709
_cell_length_c   11.05564216
_cell_angle_alpha   90.00000000
_cell_angle_beta   90.00000000
_cell_angle_gamma   90.00000000
_symmetry_Int_Tables_number   1
_chemical_formula_structural   NaCl
_chemical_formula_sum   'Na4 Cl4'
_cell_volume   306.66831102
_cell_formula_units_Z   4
loop_
 _symmetry_equiv_pos_site_id
 _symmetry_equiv_pos_as_xyz
  1  'x, y, z'
loop_
 _atom_site_type_symbol
 _atom_site_label
 _atom_site_symmetry_multiplicity
 _atom_site_fract_x
 _atom_site_fract_y
 _atom_site_fract_z
 _atom_site_occupancy
  Na  Na0  1  0.62649459  0.12649459  0.55873228  1.0
  Na  Na1  1  0.80739228  0.30739228  0.22045440  1.0
  Na  Na2  1  0.73677031  0.76322969  0.63303788  1.0
  Na  Na3  1  0.38987473  0.11012527  0.31444085  1.0
  Cl  Cl4  1  0.69678012  0.19678012  0.43953921  1.0
  Cl  Cl5  1  0.86744679  0.36744679  0.60789875  1.0
  Cl  Cl6  1  0.10447934  0.39552066  0.61921654  1.0
  Cl  Cl7  1  0.94252419  0.55747581  0.68923827  1.0
