# generated using pymatgen
data_NaCl
_symmetry_space_group_name_H-M   'P 1'
_cell_length_a   7.93235038
_cell_length_b   8.75975876
_cell_length_c   4.68330950
_cell_angle_alpha   90.00000000
_cell_angle_beta   68.61611926
_cell_angle_gamma   90.00000000
_symmetry_Int_Tables_number   1
_chemical_formula_structural   NaCl
_chemical_formula_sum   'Na4 Cl4'
_cell_volume   303.01942841
_cell_formula_units_Z   4
loop_
 _symmetry_equiv_pos_site_id
 _symmetry_equiv_pos_as_xyz
  1  'x, y, z'
loop_
 _atom_site_type_symbol
 _atom_site_label
 _atom_site_symmetry_multiplicity
 _atom_site_fract_x
 _atom_site_fract_y
 _atom_site_fract_z
 _atom_site_occupancy
  Na  Na0  1  0.51984666  0.00000000  0.56808090  1.0
  Na  Na1  1  0.77830298  0.50000000  0.56570957  1.0
  Na  Na2  1  0.29474832  0.00000000  0.34354413  1.0
  Na  Na3  1  0.21387482  0.50000000  0.94179460  1.0
  Cl  Cl4  1  0.19140677  0.77502832  0.22420661  1.0
  Cl  Cl5  1  0.28520366  0.31784673  0.85829022  1.0
  Cl  Cl6  1  0.95738977  0.92103786  0.30247225  1.0
  Cl  Cl7  1  0.86373759  0.26067469  0.17147220  1.0
