# generated using pymatgen
data_NaCl
_symmetry_space_group_name_H-M   'P 1'
_cell_length_a   4.33493103
_cell_length_b   4.33493103
_cell_length_c   11.51142373
_cell_angle_alpha   90.00000000
_cell_angle_beta   90.00000000
_cell_angle_gamma   90.00000000
_symmetry_Int_Tables_number   1
_chemical_formula_structural   NaCl
_chemical_formula_sum   'Na4 Cl4'
_cell_volume   216.31838137
_cell_formula_units_Z   4
loop_
 _symmetry_equiv_pos_site_id
 _symmetry_equiv_pos_as_xyz
  1  'x, y, z'
loop_
 _atom_site_type_symbol
 _atom_site_label
 _atom_site_symmetry_multiplicity
 _atom_site_fract_x
 _atom_site_fract_y
 _atom_site_fract_z
 _atom_site_occupancy
  Na  Na0  1  0.50376339  0.50376339  0.57000663  1.0
  Na  Na1  1  0.90955308  0.90955308  0.33613558  1.0
  Na  Na2  1  0.14721566  0.85278434  0.63489569  1.0
  Na  Na3  1  0.93578938  0.06421062  0.88837756  1.0
  Cl  Cl4  1  0.00000000  0.00000000  0.42215469  1.0
  Cl  Cl5  1  0.00000000  0.00000000  0.02588113  1.0
  Cl  Cl6  1  0.00000000  0.00000000  0.73849068  1.0
  Cl  Cl7  1  0.00000000  0.00000000  0.23134307  1.0
