# generated using pymatgen
data_NaCl
_symmetry_space_group_name_H-M   'P 1'
_cell_length_a   5.03305554
_cell_length_b   10.11502139
_cell_length_c   12.61986880
_cell_angle_alpha   90.00000000
_cell_angle_beta   38.57226490
_cell_angle_gamma   90.00000000
_symmetry_Int_Tables_number   1
_chemical_formula_structural   NaCl
_chemical_formula_sum   'Na4 Cl4'
_cell_volume   400.58130001
_cell_formula_units_Z   4
loop_
 _symmetry_equiv_pos_site_id
 _symmetry_equiv_pos_as_xyz
  1  'x, y, z'
loop_
 _atom_site_type_symbol
 _atom_site_label
 _atom_site_symmetry_multiplicity
 _atom_site_fract_x
 _atom_site_fract_y
 _atom_site_fract_z
 _atom_site_occupancy
  Na  Na0  1  0.79759042  0.41494588  0.46020206  1.0
  Na  Na1  1  0.10408539  0.63133125  0.03000950  1.0
  Na  Na2  1  0.49915217  0.84110624  0.45664296  1.0
  Na  Na3  1  0.32343124  0.27765126  0.55696555  1.0
  Cl  Cl4  1  0.30708560  0.65462688  0.53682884  1.0
  Cl  Cl5  1  0.14146243  0.03134156  0.30810433  1.0
  Cl  Cl6  1  0.91879256  0.35324418  0.35332655  1.0
  Cl  Cl7  1  0.00804486  0.19456495  0.22845935  1.0
