# generated using pymatgen
data_NaCl
_symmetry_space_group_name_H-M   'P 1'
_cell_length_a   4.70738586
_cell_length_b   4.70738586
_cell_length_c   10.32055718
_cell_angle_alpha   90.00000000
_cell_angle_beta   90.00000000
_cell_angle_gamma   90.00000000
_symmetry_Int_Tables_number   1
_chemical_formula_structural   NaCl
_chemical_formula_sum   'Na4 Cl4'
_cell_volume   228.69819729
_cell_formula_units_Z   4
loop_
 _symmetry_equiv_pos_site_id
 _symmetry_equiv_pos_as_xyz
  1  'x, y, z'
loop_
 _atom_site_type_symbol
 _atom_site_label
 _atom_site_symmetry_multiplicity
 _atom_site_fract_x
 _atom_site_fract_y
 _atom_site_fract_z
 _atom_site_occupancy
  Na  Na0  1  0.57864946  0.36959227  0.62506628  1.0
  Na  Na1  1  0.13088733  0.63232359  0.84925444  1.0
  Na  Na2  1  0.83162767  0.83262819  0.30065614  1.0
  Na  Na3  1  0.44056619  0.14573447  0.47051191  1.0
  Cl  Cl4  1  0.22157304  0.46151075  0.42581116  1.0
  Cl  Cl5  1  0.94128487  0.35923294  0.26724632  1.0
  Cl  Cl6  1  0.88667296  0.52551646  0.05071964  1.0
  Cl  Cl7  1  0.10352880  0.41496829  0.57222500  1.0
