# generated using pymatgen
data_NaCl
_symmetry_space_group_name_H-M   'P 1'
_cell_length_a   14.79125771
_cell_length_b   6.95313545
_cell_length_c   3.48128354
_cell_angle_alpha   90.00000000
_cell_angle_beta   148.51807495
_cell_angle_gamma   90.00000000
_symmetry_Int_Tables_number   1
_chemical_formula_structural   NaCl
_chemical_formula_sum   'Na4 Cl4'
_cell_volume   186.97633376
_cell_formula_units_Z   4
loop_
 _symmetry_equiv_pos_site_id
 _symmetry_equiv_pos_as_xyz
  1  'x, y, z'
loop_
 _atom_site_type_symbol
 _atom_site_label
 _atom_site_symmetry_multiplicity
 _atom_site_fract_x
 _atom_site_fract_y
 _atom_site_fract_z
 _atom_site_occupancy
  Na  Na0  1  0.50000000  0.00000000  0.00000000  1.0
  Na  Na1  1  0.50000000  0.50000000  0.50000000  1.0
  Na  Na2  1  0.50000000  0.00000000  0.50000000  1.0
  Na  Na3  1  0.50000000  0.50000000  0.00000000  1.0
  Cl  Cl4  1  0.06289687  0.53757343  0.63717775  1.0
  Cl  Cl5  1  0.77422001  0.37485378  0.70223941  1.0
  Cl  Cl6  1  0.29645331  0.21101360  0.34807758  1.0
  Cl  Cl7  1  0.19749361  0.76692915  0.80985545  1.0
