# generated using pymatgen
data_NaCl
_symmetry_space_group_name_H-M   'P 1'
_cell_length_a   3.89577303
_cell_length_b   7.93250943
_cell_length_c   9.58597798
_cell_angle_alpha   90.00000000
_cell_angle_beta   44.02144656
_cell_angle_gamma   90.00000000
_symmetry_Int_Tables_number   1
_chemical_formula_structural   NaCl
_chemical_formula_sum   'Na4 Cl4'
_cell_volume   205.86391087
_cell_formula_units_Z   4
loop_
 _symmetry_equiv_pos_site_id
 _symmetry_equiv_pos_as_xyz
  1  'x, y, z'
loop_
 _atom_site_type_symbol
 _atom_site_label
 _atom_site_symmetry_multiplicity
 _atom_site_fract_x
 _atom_site_fract_y
 _atom_site_fract_z
 _atom_site_occupancy
  Na  Na0  1  0.84769573  0.67436235  0.57910350  1.0
  Na  Na1  1  0.10229910  0.47394954  0.80004174  1.0
  Na  Na2  1  0.35662277  0.04361060  0.70963063  1.0
  Na  Na3  1  0.14806766  0.90372470  0.88154889  1.0
  Cl  Cl4  1  0.26867929  0.44841003  0.31416365  1.0
  Cl  Cl5  1  0.87067796  0.04042919  0.27081620  1.0
  Cl  Cl6  1  0.54889726  0.14350242  0.19359449  1.0
  Cl  Cl7  1  0.81340585  0.97061980  0.44147671  1.0
