# generated using pymatgen
data_NaCl
_symmetry_space_group_name_H-M   'P 1'
_cell_length_a   4.42177507
_cell_length_b   7.63088636
_cell_length_c   10.16955429
_cell_angle_alpha   90.00000000
_cell_angle_beta   90.00000000
_cell_angle_gamma   90.00000000
_symmetry_Int_Tables_number   1
_chemical_formula_structural   NaCl
_chemical_formula_sum   'Na4 Cl4'
_cell_volume   343.14174223
_cell_formula_units_Z   4
loop_
 _symmetry_equiv_pos_site_id
 _symmetry_equiv_pos_as_xyz
  1  'x, y, z'
loop_
 _atom_site_type_symbol
 _atom_site_label
 _atom_site_symmetry_multiplicity
 _atom_site_fract_x
 _atom_site_fract_y
 _atom_site_fract_z
 _atom_site_occupancy
  Na  Na0  1  0.00000000  0.24804632  0.40032766  1.0
  Na  Na1  1  0.00000000  0.65397818  0.81484545  1.0
  Na  Na2  1  0.00000000  0.54594117  0.41378932  1.0
  Na  Na3  1  0.00000000  0.54449117  0.64111605  1.0
  Cl  Cl4  1  0.56548179  0.73380215  0.30299169  1.0
  Cl  Cl5  1  0.99947003  0.06347200  0.30577551  1.0
  Cl  Cl6  1  0.51747786  0.83440307  0.06147470  1.0
  Cl  Cl7  1  0.51961987  0.41980580  0.48768308  1.0
