# generated using pymatgen
data_NaCl
_symmetry_space_group_name_H-M   'P 1'
_cell_length_a   5.45281590
_cell_length_b   5.45281590
_cell_length_c   9.54048044
_cell_angle_alpha   90.00000000
_cell_angle_beta   90.00000000
_cell_angle_gamma   90.00000000
_symmetry_Int_Tables_number   1
_chemical_formula_structural   NaCl
_chemical_formula_sum   'Na4 Cl4'
_cell_volume   283.66902484
_cell_formula_units_Z   4
loop_
 _symmetry_equiv_pos_site_id
 _symmetry_equiv_pos_as_xyz
  1  'x, y, z'
loop_
 _atom_site_type_symbol
 _atom_site_label
 _atom_site_symmetry_multiplicity
 _atom_site_fract_x
 _atom_site_fract_y
 _atom_site_fract_z
 _atom_site_occupancy
  Na  Na0  1  0.59725705  0.28952188  0.46402344  1.0
  Na  Na1  1  0.93672980  0.70956016  0.24118872  1.0
  Na  Na2  1  0.58132458  0.87625252  0.55369153  1.0
  Na  Na3  1  0.41013595  0.13152087  0.76841513  1.0
  Cl  Cl4  1  0.00000000  0.50000000  0.46290520  1.0
  Cl  Cl5  1  0.50000000  0.00000000  0.19061919  1.0
  Cl  Cl6  1  0.50000000  0.50000000  0.64730288  1.0
  Cl  Cl7  1  0.50000000  0.50000000  0.12324705  1.0
