# generated using pymatgen
data_NaCl
_symmetry_space_group_name_H-M   'P 1'
_cell_length_a   2.64200381
_cell_length_b   11.13121912
_cell_length_c   7.53913296
_cell_angle_alpha   90.00000000
_cell_angle_beta   70.60635003
_cell_angle_gamma   90.00000000
_symmetry_Int_Tables_number   1
_chemical_formula_structural   NaCl
_chemical_formula_sum   'Na4 Cl4'
_cell_volume   209.13597530
_cell_formula_units_Z   4
loop_
 _symmetry_equiv_pos_site_id
 _symmetry_equiv_pos_as_xyz
  1  'x, y, z'
loop_
 _atom_site_type_symbol
 _atom_site_label
 _atom_site_symmetry_multiplicity
 _atom_site_fract_x
 _atom_site_fract_y
 _atom_site_fract_z
 _atom_site_occupancy
  Na  Na0  1  0.28042717  0.71813166  0.17640795  1.0
  Na  Na1  1  0.81982326  0.49936760  0.14647633  1.0
  Na  Na2  1  0.38724438  0.14163588  0.60503130  1.0
  Na  Na3  1  0.06456860  0.99655022  0.57277989  1.0
  Cl  Cl4  1  0.24002609  0.45345669  0.71200399  1.0
  Cl  Cl5  1  0.82667847  0.90419257  0.11292646  1.0
  Cl  Cl6  1  0.39193612  0.30056481  0.33024143  1.0
  Cl  Cl7  1  0.22035489  0.87739353  0.67935408  1.0
