# generated using pymatgen
data_NaCl
_symmetry_space_group_name_H-M   'P 1'
_cell_length_a   3.43799212
_cell_length_b   3.43799212
_cell_length_c   13.64831324
_cell_angle_alpha   90.00000000
_cell_angle_beta   90.00000000
_cell_angle_gamma   120.00000000
_symmetry_Int_Tables_number   1
_chemical_formula_structural   NaCl
_chemical_formula_sum   'Na4 Cl4'
_cell_volume   139.70738602
_cell_formula_units_Z   4
loop_
 _symmetry_equiv_pos_site_id
 _symmetry_equiv_pos_as_xyz
  1  'x, y, z'
loop_
 _atom_site_type_symbol
 _atom_site_label
 _atom_site_symmetry_multiplicity
 _atom_site_fract_x
 _atom_site_fract_y
 _atom_site_fract_z
 _atom_site_occupancy
  Na  Na0  1  0.00000000  0.00000000  0.21773088  1.0
  Na  Na1  1  0.00000000  0.00000000  0.58183576  1.0
  Na  Na2  1  0.00000000  0.00000000  0.45807063  1.0
  Na  Na3  1  0.00000000  0.00000000  0.07883221  1.0
  Cl  Cl4  1  0.00000000  0.00000000  0.89766355  1.0
  Cl  Cl5  1  0.12675556  0.00000000  0.97265991  1.0
  Cl  Cl6  1  0.00000000  0.63447125  0.13616507  1.0
  Cl  Cl7  1  0.80365618  0.80365618  0.33723763  1.0
