# generated using pymatgen
data_NaCl
_symmetry_space_group_name_H-M   'P 1'
_cell_length_a   8.53307786
_cell_length_b   8.53307786
_cell_length_c   2.56831978
_cell_angle_alpha   90.00000000
_cell_angle_beta   90.00000000
_cell_angle_gamma   90.00000000
_symmetry_Int_Tables_number   1
_chemical_formula_structural   NaCl
_chemical_formula_sum   'Na4 Cl4'
_cell_volume   187.00814109
_cell_formula_units_Z   4
loop_
 _symmetry_equiv_pos_site_id
 _symmetry_equiv_pos_as_xyz
  1  'x, y, z'
loop_
 _atom_site_type_symbol
 _atom_site_label
 _atom_site_symmetry_multiplicity
 _atom_site_fract_x
 _atom_site_fract_y
 _atom_site_fract_z
 _atom_site_occupancy
  Na  Na0  1  0.10765572  0.03438082  0.30572359  1.0
  Na  Na1  1  0.68595104  0.68903666  0.39850555  1.0
  Na  Na2  1  0.88548271  0.61808516  0.74062324  1.0
  Na  Na3  1  0.71117212  0.30510541  0.89834213  1.0
  Cl  Cl4  1  0.17524641  0.69669057  0.25301244  1.0
  Cl  Cl5  1  0.87353880  0.30903601  0.25296998  1.0
  Cl  Cl6  1  0.86206160  0.77387371  0.99426661  1.0
  Cl  Cl7  1  0.48423198  0.83904484  0.32866621  1.0
