# generated using pymatgen
data_NaCl
_symmetry_space_group_name_H-M   'P 1'
_cell_length_a   12.45412412
_cell_length_b   5.71365345
_cell_length_c   5.70582076
_cell_angle_alpha   90.00000000
_cell_angle_beta   90.00000000
_cell_angle_gamma   90.00000000
_symmetry_Int_Tables_number   1
_chemical_formula_structural   NaCl
_chemical_formula_sum   'Na4 Cl4'
_cell_volume   406.01792753
_cell_formula_units_Z   4
loop_
 _symmetry_equiv_pos_site_id
 _symmetry_equiv_pos_as_xyz
  1  'x, y, z'
loop_
 _atom_site_type_symbol
 _atom_site_label
 _atom_site_symmetry_multiplicity
 _atom_site_fract_x
 _atom_site_fract_y
 _atom_site_fract_z
 _atom_site_occupancy
  Na  Na0  1  0.00000000  0.00000000  0.20432801  1.0
  Na  Na1  1  0.50000000  0.00000000  0.48049425  1.0
  Na  Na2  1  0.50000000  0.50000000  0.60438536  1.0
  Na  Na3  1  0.00000000  0.50000000  0.53805160  1.0
  Cl  Cl4  1  0.25000000  0.49455995  0.52264197  1.0
  Cl  Cl5  1  0.75000000  0.00288987  0.69765081  1.0
  Cl  Cl6  1  0.75000000  0.42534822  0.14223683  1.0
  Cl  Cl7  1  0.25000000  0.82671144  0.72830703  1.0
