# generated using pymatgen
data_NaCl
_symmetry_space_group_name_H-M   'P 1'
_cell_length_a   4.69860657
_cell_length_b   7.68228124
_cell_length_c   9.73397012
_cell_angle_alpha   90.00000000
_cell_angle_beta   90.00000000
_cell_angle_gamma   90.00000000
_symmetry_Int_Tables_number   1
_chemical_formula_structural   NaCl
_chemical_formula_sum   'Na4 Cl4'
_cell_volume   351.35755197
_cell_formula_units_Z   4
loop_
 _symmetry_equiv_pos_site_id
 _symmetry_equiv_pos_as_xyz
  1  'x, y, z'
loop_
 _atom_site_type_symbol
 _atom_site_label
 _atom_site_symmetry_multiplicity
 _atom_site_fract_x
 _atom_site_fract_y
 _atom_site_fract_z
 _atom_site_occupancy
  Na  Na0  1  0.25000000  0.26326420  0.51665861  1.0
  Na  Na1  1  0.25000000  0.54890981  0.22798171  1.0
  Na  Na2  1  0.75000000  0.34371686  0.91521866  1.0
  Na  Na3  1  0.75000000  0.69057339  0.59349706  1.0
  Cl  Cl4  1  0.25000000  0.65323368  0.33392762  1.0
  Cl  Cl5  1  0.25000000  0.20214677  0.63974750  1.0
  Cl  Cl6  1  0.75000000  0.55330017  0.43459372  1.0
  Cl  Cl7  1  0.75000000  0.71935039  0.30066665  1.0
