# generated using pymatgen
data_NaCl
_symmetry_space_group_name_H-M   'P 1'
_cell_length_a   7.67339603
_cell_length_b   7.67339603
_cell_length_c   5.26223050
_cell_angle_alpha   90.00000000
_cell_angle_beta   90.00000000
_cell_angle_gamma   90.00000000
_symmetry_Int_Tables_number   1
_chemical_formula_structural   NaCl
_chemical_formula_sum   'Na4 Cl4'
_cell_volume   309.84542898
_cell_formula_units_Z   4
loop_
 _symmetry_equiv_pos_site_id
 _symmetry_equiv_pos_as_xyz
  1  'x, y, z'
loop_
 _atom_site_type_symbol
 _atom_site_label
 _atom_site_symmetry_multiplicity
 _atom_site_fract_x
 _atom_site_fract_y
 _atom_site_fract_z
 _atom_site_occupancy
  Na  Na0  1  0.16559107  0.00018049  0.35437531  1.0
  Na  Na1  1  0.41889127  0.08052192  0.70931451  1.0
  Na  Na2  1  0.97969445  0.28753565  0.22343960  1.0
  Na  Na3  1  0.59193500  0.39796165  0.37112250  1.0
  Cl  Cl4  1  0.34373343  0.58119042  0.29537641  1.0
  Cl  Cl5  1  0.82285106  0.24913959  0.92688230  1.0
  Cl  Cl6  1  0.11018227  0.66349086  0.96311533  1.0
  Cl  Cl7  1  0.46431879  0.86267378  0.72819078  1.0
