# generated using pymatgen
data_NaCl
_symmetry_space_group_name_H-M   'P 1'
_cell_length_a   6.38336815
_cell_length_b   6.38336815
_cell_length_c   8.27742159
_cell_angle_alpha   90.00000000
_cell_angle_beta   90.00000000
_cell_angle_gamma   90.00000000
_symmetry_Int_Tables_number   1
_chemical_formula_structural   NaCl
_chemical_formula_sum   'Na4 Cl4'
_cell_volume   337.28331694
_cell_formula_units_Z   4
loop_
 _symmetry_equiv_pos_site_id
 _symmetry_equiv_pos_as_xyz
  1  'x, y, z'
loop_
 _atom_site_type_symbol
 _atom_site_label
 _atom_site_symmetry_multiplicity
 _atom_site_fract_x
 _atom_site_fract_y
 _atom_site_fract_z
 _atom_site_occupancy
  Na  Na0  1  0.77389381  0.36154039  0.57422253  1.0
  Na  Na1  1  0.30383725  0.47867379  0.94962206  1.0
  Na  Na2  1  0.50269974  0.86229911  0.43171381  1.0
  Na  Na3  1  0.46147058  0.25141861  0.14873027  1.0
  Cl  Cl4  1  0.15854454  0.58050554  0.45671624  1.0
  Cl  Cl5  1  0.98188197  0.05030981  0.15736961  1.0
  Cl  Cl6  1  0.07672307  0.48048670  0.58998729  1.0
  Cl  Cl7  1  0.19283289  0.65252355  0.36178106  1.0
