# generated using pymatgen
data_NaCl
_symmetry_space_group_name_H-M   'P 1'
_cell_length_a   4.65118704
_cell_length_b   13.33330348
_cell_length_c   5.90520339
_cell_angle_alpha   90.00000000
_cell_angle_beta   90.00000000
_cell_angle_gamma   90.00000000
_symmetry_Int_Tables_number   1
_chemical_formula_structural   NaCl
_chemical_formula_sum   'Na4 Cl4'
_cell_volume   366.21525306
_cell_formula_units_Z   4
loop_
 _symmetry_equiv_pos_site_id
 _symmetry_equiv_pos_as_xyz
  1  'x, y, z'
loop_
 _atom_site_type_symbol
 _atom_site_label
 _atom_site_symmetry_multiplicity
 _atom_site_fract_x
 _atom_site_fract_y
 _atom_site_fract_z
 _atom_site_occupancy
  Na  Na0  1  0.25000000  0.21931025  0.58189101  1.0
  Na  Na1  1  0.75000000  0.69679774  0.28321063  1.0
  Na  Na2  1  0.75000000  0.92253486  0.99538474  1.0
  Na  Na3  1  0.25000000  0.06650505  0.69883520  1.0
  Cl  Cl4  1  0.25000000  0.70995029  0.28482213  1.0
  Cl  Cl5  1  0.75000000  0.10769782  0.77029173  1.0
  Cl  Cl6  1  0.75000000  0.60159034  0.14318942  1.0
  Cl  Cl7  1  0.25000000  0.08471138  0.48861495  1.0
