# generated using pymatgen
data_NaCl
_symmetry_space_group_name_H-M   'P 1'
_cell_length_a   7.27059373
_cell_length_b   13.21614171
_cell_length_c   4.48960408
_cell_angle_alpha   90.00000000
_cell_angle_beta   68.49148135
_cell_angle_gamma   90.00000000
_symmetry_Int_Tables_number   1
_chemical_formula_structural   NaCl
_chemical_formula_sum   'Na4 Cl4'
_cell_volume   401.36090748
_cell_formula_units_Z   4
loop_
 _symmetry_equiv_pos_site_id
 _symmetry_equiv_pos_as_xyz
  1  'x, y, z'
loop_
 _atom_site_type_symbol
 _atom_site_label
 _atom_site_symmetry_multiplicity
 _atom_site_fract_x
 _atom_site_fract_y
 _atom_site_fract_z
 _atom_site_occupancy
  Na  Na0  1  0.00000000  0.03253794  0.00000000  1.0
  Na  Na1  1  0.50000000  0.27125287  0.00000000  1.0
  Na  Na2  1  0.00000000  0.32132657  0.50000000  1.0
  Na  Na3  1  0.50000000  0.21503741  0.50000000  1.0
  Cl  Cl4  1  0.00000000  0.55812863  0.50000000  1.0
  Cl  Cl5  1  0.50000000  0.86496046  0.50000000  1.0
  Cl  Cl6  1  0.00000000  0.15713338  0.50000000  1.0
  Cl  Cl7  1  0.50000000  0.65440076  0.50000000  1.0
