# generated using pymatgen
data_NaCl
_symmetry_space_group_name_H-M   'P 1'
_cell_length_a   5.62236982
_cell_length_b   9.33833565
_cell_length_c   8.69522708
_cell_angle_alpha   90.00000000
_cell_angle_beta   144.27753227
_cell_angle_gamma   90.00000000
_symmetry_Int_Tables_number   1
_chemical_formula_structural   NaCl
_chemical_formula_sum   'Na4 Cl4'
_cell_volume   266.54973323
_cell_formula_units_Z   4
loop_
 _symmetry_equiv_pos_site_id
 _symmetry_equiv_pos_as_xyz
  1  'x, y, z'
loop_
 _atom_site_type_symbol
 _atom_site_label
 _atom_site_symmetry_multiplicity
 _atom_site_fract_x
 _atom_site_fract_y
 _atom_site_fract_z
 _atom_site_occupancy
  Na  Na0  1  0.52083063  0.44269048  0.41904132  1.0
  Na  Na1  1  0.85707589  0.72947941  0.75762458  1.0
  Na  Na2  1  0.78423389  0.40287262  0.02437021  1.0
  Na  Na3  1  0.10293033  0.93515958  0.59319367  1.0
  Cl  Cl4  1  0.58795269  0.59414512  0.35716456  1.0
  Cl  Cl5  1  0.99992702  0.46213590  0.36590811  1.0
  Cl  Cl6  1  0.55058219  0.54407670  0.52167789  1.0
  Cl  Cl7  1  0.62235534  0.66209324  0.19240747  1.0
