# generated using pymatgen
data_NaCl
_symmetry_space_group_name_H-M   'P 1'
_cell_length_a   5.56747049
_cell_length_b   10.83748964
_cell_length_c   11.91677641
_cell_angle_alpha   90.00000000
_cell_angle_beta   157.30280686
_cell_angle_gamma   90.00000000
_symmetry_Int_Tables_number   1
_chemical_formula_structural   NaCl
_chemical_formula_sum   'Na4 Cl4'
_cell_volume   277.44450268
_cell_formula_units_Z   4
loop_
 _symmetry_equiv_pos_site_id
 _symmetry_equiv_pos_as_xyz
  1  'x, y, z'
loop_
 _atom_site_type_symbol
 _atom_site_label
 _atom_site_symmetry_multiplicity
 _atom_site_fract_x
 _atom_site_fract_y
 _atom_site_fract_z
 _atom_site_occupancy
  Na  Na0  1  0.57557619  0.34608983  0.57293221  1.0
  Na  Na1  1  0.92831163  0.21913725  0.70370530  1.0
  Na  Na2  1  0.32930868  0.95855102  0.00187387  1.0
  Na  Na3  1  0.55833803  0.86148378  0.71703600  1.0
  Cl  Cl4  1  0.00000000  0.62961557  0.00000000  1.0
  Cl  Cl5  1  0.50000000  0.38364938  0.00000000  1.0
  Cl  Cl6  1  0.00000000  0.54520015  0.50000000  1.0
  Cl  Cl7  1  0.50000000  0.77099809  0.50000000  1.0
