# generated using pymatgen
data_NaCl
_symmetry_space_group_name_H-M   'P 1'
_cell_length_a   8.86604194
_cell_length_b   5.55457852
_cell_length_c   10.11595725
_cell_angle_alpha   90.00000000
_cell_angle_beta   33.88041921
_cell_angle_gamma   90.00000000
_symmetry_Int_Tables_number   1
_chemical_formula_structural   NaCl
_chemical_formula_sum   'Na4 Cl4'
_cell_volume   277.71714635
_cell_formula_units_Z   4
loop_
 _symmetry_equiv_pos_site_id
 _symmetry_equiv_pos_as_xyz
  1  'x, y, z'
loop_
 _atom_site_type_symbol
 _atom_site_label
 _atom_site_symmetry_multiplicity
 _atom_site_fract_x
 _atom_site_fract_y
 _atom_site_fract_z
 _atom_site_occupancy
  Na  Na0  1  0.66422816  0.46730826  0.46296367  1.0
  Na  Na1  1  0.84577920  0.07490901  0.81694069  1.0
  Na  Na2  1  0.92389691  0.90272039  0.37116469  1.0
  Na  Na3  1  0.40730319  0.18809732  0.61238212  1.0
  Cl  Cl4  1  0.64192413  0.58720706  0.26924271  1.0
  Cl  Cl5  1  0.01815083  0.35465459  0.29507832  1.0
  Cl  Cl6  1  0.07893914  0.15868043  0.43457793  1.0
  Cl  Cl7  1  0.98200345  0.31931339  0.08967204  1.0
