# generated using pymatgen
data_NaCl
_symmetry_space_group_name_H-M   'P 1'
_cell_length_a   7.07246015
_cell_length_b   7.07246015
_cell_length_c   4.19461300
_cell_angle_alpha   90.00000000
_cell_angle_beta   90.00000000
_cell_angle_gamma   90.00000000
_symmetry_Int_Tables_number   1
_chemical_formula_structural   NaCl
_chemical_formula_sum   'Na4 Cl4'
_cell_volume   209.81325272
_cell_formula_units_Z   4
loop_
 _symmetry_equiv_pos_site_id
 _symmetry_equiv_pos_as_xyz
  1  'x, y, z'
loop_
 _atom_site_type_symbol
 _atom_site_label
 _atom_site_symmetry_multiplicity
 _atom_site_fract_x
 _atom_site_fract_y
 _atom_site_fract_z
 _atom_site_occupancy
  Na  Na0  1  0.66666667  0.85521806  0.91474366  1.0
  Na  Na1  1  0.18761990  0.47390447  0.43658068  1.0
  Na  Na2  1  0.48237220  0.23622391  0.36857254  1.0
  Na  Na3  1  0.23193789  0.60885298  0.06717826  1.0
  Cl  Cl4  1  0.96410216  0.69435471  0.39419920  1.0
  Cl  Cl5  1  0.93903989  0.32082957  0.01911890  1.0
  Cl  Cl6  1  0.74944467  0.90652209  0.46870490  1.0
  Cl  Cl7  1  0.76011119  0.49301488  0.33219718  1.0
