# generated using pymatgen
data_NaCl
_symmetry_space_group_name_H-M   'P 1'
_cell_length_a   5.09291983
_cell_length_b   16.46034602
_cell_length_c   8.97668257
_cell_angle_alpha   90.00000000
_cell_angle_beta   159.93864018
_cell_angle_gamma   90.00000000
_symmetry_Int_Tables_number   1
_chemical_formula_structural   NaCl
_chemical_formula_sum   'Na4 Cl4'
_cell_volume   258.13629846
_cell_formula_units_Z   4
loop_
 _symmetry_equiv_pos_site_id
 _symmetry_equiv_pos_as_xyz
  1  'x, y, z'
loop_
 _atom_site_type_symbol
 _atom_site_label
 _atom_site_symmetry_multiplicity
 _atom_site_fract_x
 _atom_site_fract_y
 _atom_site_fract_z
 _atom_site_occupancy
  Na  Na0  1  0.69314137  0.76840324  0.90864788  1.0
  Na  Na1  1  0.24721646  0.35918893  0.03049102  1.0
  Na  Na2  1  0.30212891  0.22135085  0.07192511  1.0
  Na  Na3  1  0.49824975  0.89241836  0.04490252  1.0
  Cl  Cl4  1  0.08119160  0.84729906  0.31997006  1.0
  Cl  Cl5  1  0.89737067  0.15848506  0.62813007  1.0
  Cl  Cl6  1  0.96882904  0.52705516  0.10688665  1.0
  Cl  Cl7  1  0.49844684  0.37214202  0.98239339  1.0
