# generated using pymatgen
data_NaCl
_symmetry_space_group_name_H-M   'P 1'
_cell_length_a   7.57108117
_cell_length_b   15.75893354
_cell_length_c   4.13885238
_cell_angle_alpha   90.00000000
_cell_angle_beta   144.66399039
_cell_angle_gamma   90.00000000
_symmetry_Int_Tables_number   1
_chemical_formula_structural   NaCl
_chemical_formula_sum   'Na4 Cl4'
_cell_volume   285.60825289
_cell_formula_units_Z   4
loop_
 _symmetry_equiv_pos_site_id
 _symmetry_equiv_pos_as_xyz
  1  'x, y, z'
loop_
 _atom_site_type_symbol
 _atom_site_label
 _atom_site_symmetry_multiplicity
 _atom_site_fract_x
 _atom_site_fract_y
 _atom_site_fract_z
 _atom_site_occupancy
  Na  Na0  1  0.58445816  0.57327533  0.93858063  1.0
  Na  Na1  1  0.76154270  0.46107008  0.42783026  1.0
  Na  Na2  1  0.74066146  0.06001780  0.19294192  1.0
  Na  Na3  1  0.24831930  0.15365721  0.83000934  1.0
  Cl  Cl4  1  0.91075230  0.73511256  0.44789642  1.0
  Cl  Cl5  1  0.01820405  0.31192742  0.95199552  1.0
  Cl  Cl6  1  0.45803658  0.94541263  0.20885764  1.0
  Cl  Cl7  1  0.04548980  0.75379394  0.98850789  1.0
