# generated using pymatgen
data_NaCl
_symmetry_space_group_name_H-M   'P 1'
_cell_length_a   6.83128106
_cell_length_b   6.83128106
_cell_length_c   7.76706176
_cell_angle_alpha   90.00000000
_cell_angle_beta   90.00000000
_cell_angle_gamma   90.00000000
_symmetry_Int_Tables_number   1
_chemical_formula_structural   NaCl
_chemical_formula_sum   'Na4 Cl4'
_cell_volume   362.46081807
_cell_formula_units_Z   4
loop_
 _symmetry_equiv_pos_site_id
 _symmetry_equiv_pos_as_xyz
  1  'x, y, z'
loop_
 _atom_site_type_symbol
 _atom_site_label
 _atom_site_symmetry_multiplicity
 _atom_site_fract_x
 _atom_site_fract_y
 _atom_site_fract_z
 _atom_site_occupancy
  Na  Na0  1  0.40958725  0.30120197  0.88289498  1.0
  Na  Na1  1  0.13756046  0.08324741  0.43935315  1.0
  Na  Na2  1  0.23838005  0.29810643  0.25002640  1.0
  Na  Na3  1  0.46386481  0.85716104  0.03764328  1.0
  Cl  Cl4  1  0.51566108  0.96093595  0.36387430  1.0
  Cl  Cl5  1  0.96752073  0.28727881  0.80533824  1.0
  Cl  Cl6  1  0.40384384  0.58810300  0.40587227  1.0
  Cl  Cl7  1  0.78043560  0.56272125  0.06433927  1.0
