# generated using pymatgen
data_NaCl
_symmetry_space_group_name_H-M   'P 1'
_cell_length_a   6.06977553
_cell_length_b   8.07394313
_cell_length_c   6.83840353
_cell_angle_alpha   90.00000000
_cell_angle_beta   90.00000000
_cell_angle_gamma   90.00000000
_symmetry_Int_Tables_number   1
_chemical_formula_structural   NaCl
_chemical_formula_sum   'Na4 Cl4'
_cell_volume   335.12979526
_cell_formula_units_Z   4
loop_
 _symmetry_equiv_pos_site_id
 _symmetry_equiv_pos_as_xyz
  1  'x, y, z'
loop_
 _atom_site_type_symbol
 _atom_site_label
 _atom_site_symmetry_multiplicity
 _atom_site_fract_x
 _atom_site_fract_y
 _atom_site_fract_z
 _atom_site_occupancy
  Na  Na0  1  0.52684281  0.40501969  0.99678579  1.0
  Na  Na1  1  0.74172351  0.16380580  0.19620589  1.0
  Na  Na2  1  0.84204440  0.36912160  0.60030710  1.0
  Na  Na3  1  0.49918047  0.60207441  0.23675804  1.0
  Cl  Cl4  1  0.65713787  0.94337820  0.93751384  1.0
  Cl  Cl5  1  0.44534169  0.22129392  0.91723135  1.0
  Cl  Cl6  1  0.79095386  0.70310595  0.60236389  1.0
  Cl  Cl7  1  0.11918907  0.96748884  0.38821258  1.0
