# generated using pymatgen
data_NaCl
_symmetry_space_group_name_H-M   'P 1'
_cell_length_a   4.21691773
_cell_length_b   14.00253185
_cell_length_c   2.89927480
_cell_angle_alpha   90.00000000
_cell_angle_beta   80.48807158
_cell_angle_gamma   90.00000000
_symmetry_Int_Tables_number   1
_chemical_formula_structural   NaCl
_chemical_formula_sum   'Na4 Cl4'
_cell_volume   168.84127813
_cell_formula_units_Z   4
loop_
 _symmetry_equiv_pos_site_id
 _symmetry_equiv_pos_as_xyz
  1  'x, y, z'
loop_
 _atom_site_type_symbol
 _atom_site_label
 _atom_site_symmetry_multiplicity
 _atom_site_fract_x
 _atom_site_fract_y
 _atom_site_fract_z
 _atom_site_occupancy
  Na  Na0  1  0.70390273  0.56762156  0.88513646  1.0
  Na  Na1  1  0.89645654  0.53645171  0.45867279  1.0
  Na  Na2  1  0.80173558  0.02896951  0.06667795  1.0
  Na  Na3  1  0.58333252  0.22695082  0.84461475  1.0
  Cl  Cl4  1  0.80957155  0.76828495  0.49459174  1.0
  Cl  Cl5  1  0.08315377  0.64789866  0.93964524  1.0
  Cl  Cl6  1  0.26016182  0.80280334  0.08919674  1.0
  Cl  Cl7  1  0.93764155  0.51768057  0.00797351  1.0
