# generated using pymatgen
data_NaCl
_symmetry_space_group_name_H-M   'P 1'
_cell_length_a   5.75706889
_cell_length_b   5.75706889
_cell_length_c   5.75706889
_cell_angle_alpha   90.00000000
_cell_angle_beta   90.00000000
_cell_angle_gamma   90.00000000
_symmetry_Int_Tables_number   1
_chemical_formula_structural   NaCl
_chemical_formula_sum   'Na4 Cl4'
_cell_volume   190.81138285
_cell_formula_units_Z   4
loop_
 _symmetry_equiv_pos_site_id
 _symmetry_equiv_pos_as_xyz
  1  'x, y, z'
loop_
 _atom_site_type_symbol
 _atom_site_label
 _atom_site_symmetry_multiplicity
 _atom_site_fract_x
 _atom_site_fract_y
 _atom_site_fract_z
 _atom_site_occupancy
  Na  Na0  1  0.54351717  0.54351717  0.54351717  1.0
  Na  Na1  1  0.73573933  0.23573933  0.26426067  1.0
  Na  Na2  1  0.76316444  0.73683556  0.26316444  1.0
  Na  Na3  1  0.78987538  0.21012462  0.71012462  1.0
  Cl  Cl4  1  0.38771469  0.38771469  0.38771469  1.0
  Cl  Cl5  1  0.38219592  0.88219592  0.61780408  1.0
  Cl  Cl6  1  0.31476409  0.18523591  0.81476409  1.0
  Cl  Cl7  1  0.96579230  0.03420770  0.53420770  1.0
