# generated using pymatgen
data_NaCl
_symmetry_space_group_name_H-M   'P 1'
_cell_length_a   5.28362005
_cell_length_b   5.28362005
_cell_length_c   7.33130461
_cell_angle_alpha   90.00000000
_cell_angle_beta   90.00000000
_cell_angle_gamma   90.00000000
_symmetry_Int_Tables_number   1
_chemical_formula_structural   NaCl
_chemical_formula_sum   'Na4 Cl4'
_cell_volume   204.66539763
_cell_formula_units_Z   4
loop_
 _symmetry_equiv_pos_site_id
 _symmetry_equiv_pos_as_xyz
  1  'x, y, z'
loop_
 _atom_site_type_symbol
 _atom_site_label
 _atom_site_symmetry_multiplicity
 _atom_site_fract_x
 _atom_site_fract_y
 _atom_site_fract_z
 _atom_site_occupancy
  Na  Na0  1  0.62382858  0.39532564  0.98354037  1.0
  Na  Na1  1  0.16158136  0.47013386  0.23597159  1.0
  Na  Na2  1  0.57306094  0.10137338  0.33435677  1.0
  Na  Na3  1  0.35403758  0.58182508  0.02056558  1.0
  Cl  Cl4  1  0.81022844  0.71209383  0.21505589  1.0
  Cl  Cl5  1  0.95469827  0.33321769  0.96776259  1.0
  Cl  Cl6  1  0.74966338  0.80276684  0.33911280  1.0
  Cl  Cl7  1  0.79750781  0.60372650  0.96526592  1.0
