# generated using pymatgen
data_NaCl
_symmetry_space_group_name_H-M   'P 1'
_cell_length_a   3.44803319
_cell_length_b   3.44803319
_cell_length_c   10.21089274
_cell_angle_alpha   90.00000000
_cell_angle_beta   90.00000000
_cell_angle_gamma   120.00000000
_symmetry_Int_Tables_number   1
_chemical_formula_structural   NaCl
_chemical_formula_sum   'Na4 Cl4'
_cell_volume   105.13255549
_cell_formula_units_Z   4
loop_
 _symmetry_equiv_pos_site_id
 _symmetry_equiv_pos_as_xyz
  1  'x, y, z'
loop_
 _atom_site_type_symbol
 _atom_site_label
 _atom_site_symmetry_multiplicity
 _atom_site_fract_x
 _atom_site_fract_y
 _atom_site_fract_z
 _atom_site_occupancy
  Na  Na0  1  0.33333333  0.66666667  0.94219692  1.0
  Na  Na1  1  0.33333333  0.66666667  0.73236259  1.0
  Na  Na2  1  0.66666667  0.33333333  0.09143963  1.0
  Na  Na3  1  0.66666667  0.33333333  0.25005010  1.0
  Cl  Cl4  1  0.00000000  0.00000000  0.84061587  1.0
  Cl  Cl5  1  0.33333333  0.66666667  0.39302130  1.0
  Cl  Cl6  1  0.33333333  0.66666667  0.13176197  1.0
  Cl  Cl7  1  0.66666667  0.33333333  0.41989030  1.0
