# generated using pymatgen
data_NaCl
_symmetry_space_group_name_H-M   'P 1'
_cell_length_a   3.77595931
_cell_length_b   15.84823248
_cell_length_c   11.05226650
_cell_angle_alpha   90.00000000
_cell_angle_beta   154.55051810
_cell_angle_gamma   90.00000000
_symmetry_Int_Tables_number   1
_chemical_formula_structural   NaCl
_chemical_formula_sum   'Na4 Cl4'
_cell_volume   284.21049827
_cell_formula_units_Z   4
loop_
 _symmetry_equiv_pos_site_id
 _symmetry_equiv_pos_as_xyz
  1  'x, y, z'
loop_
 _atom_site_type_symbol
 _atom_site_label
 _atom_site_symmetry_multiplicity
 _atom_site_fract_x
 _atom_site_fract_y
 _atom_site_fract_z
 _atom_site_occupancy
  Na  Na0  1  0.43280678  0.40281723  0.88076499  1.0
  Na  Na1  1  0.77826879  0.47625290  0.26547513  1.0
  Na  Na2  1  0.25086072  0.72853557  0.05519285  1.0
  Na  Na3  1  0.13600806  0.30376897  0.99902647  1.0
  Cl  Cl4  1  0.79193898  0.84238765  0.61064028  1.0
  Cl  Cl5  1  0.03210165  0.40356171  0.10836399  1.0
  Cl  Cl6  1  0.93186910  0.23675443  0.20280089  1.0
  Cl  Cl7  1  0.53417754  0.11704398  0.97834726  1.0
