# generated using pymatgen
data_NaCl
_symmetry_space_group_name_H-M   'P 1'
_cell_length_a   4.83322528
_cell_length_b   4.83322528
_cell_length_c   4.83322528
_cell_angle_alpha   90.00000000
_cell_angle_beta   90.00000000
_cell_angle_gamma   90.00000000
_symmetry_Int_Tables_number   1
_chemical_formula_structural   NaCl
_chemical_formula_sum   'Na4 Cl4'
_cell_volume   112.90446447
_cell_formula_units_Z   4
loop_
 _symmetry_equiv_pos_site_id
 _symmetry_equiv_pos_as_xyz
  1  'x, y, z'
loop_
 _atom_site_type_symbol
 _atom_site_label
 _atom_site_symmetry_multiplicity
 _atom_site_fract_x
 _atom_site_fract_y
 _atom_site_fract_z
 _atom_site_occupancy
  Na  Na0  1  0.57969454  0.57969454  0.57969454  1.0
  Na  Na1  1  0.63935582  0.13935582  0.36064418  1.0
  Na  Na2  1  0.67885061  0.82114939  0.17885061  1.0
  Na  Na3  1  0.51579397  0.48420603  0.98420603  1.0
  Cl  Cl4  1  0.84862721  0.84862721  0.84862721  1.0
  Cl  Cl5  1  0.48501047  0.98501047  0.51498953  1.0
  Cl  Cl6  1  0.15948094  0.34051906  0.65948094  1.0
  Cl  Cl7  1  0.92325561  0.07674439  0.57674439  1.0
