# generated using pymatgen
data_NaCl
_symmetry_space_group_name_H-M   'P 1'
_cell_length_a   5.78008334
_cell_length_b   5.78008334
_cell_length_c   5.78008334
_cell_angle_alpha   90.00000000
_cell_angle_beta   90.00000000
_cell_angle_gamma   90.00000000
_symmetry_Int_Tables_number   1
_chemical_formula_structural   NaCl
_chemical_formula_sum   'Na4 Cl4'
_cell_volume   193.10890489
_cell_formula_units_Z   4
loop_
 _symmetry_equiv_pos_site_id
 _symmetry_equiv_pos_as_xyz
  1  'x, y, z'
loop_
 _atom_site_type_symbol
 _atom_site_label
 _atom_site_symmetry_multiplicity
 _atom_site_fract_x
 _atom_site_fract_y
 _atom_site_fract_z
 _atom_site_occupancy
  Na  Na0  1  0.61498933  0.61498933  0.61498933  1.0
  Na  Na1  1  0.57720635  0.07720635  0.42279365  1.0
  Na  Na2  1  0.75856419  0.74143581  0.25856419  1.0
  Na  Na3  1  0.24798543  0.75201457  0.25201457  1.0
  Cl  Cl4  1  0.81229715  0.81229715  0.81229715  1.0
  Cl  Cl5  1  0.45153887  0.95153887  0.54846113  1.0
  Cl  Cl6  1  0.06997158  0.43002842  0.56997158  1.0
  Cl  Cl7  1  0.92421557  0.07578443  0.57578443  1.0
