# generated using pymatgen
data_NaCl
_symmetry_space_group_name_H-M   'P 1'
_cell_length_a   3.75818859
_cell_length_b   16.80778062
_cell_length_c   9.42038111
_cell_angle_alpha   90.00000000
_cell_angle_beta   37.47369235
_cell_angle_gamma   90.00000000
_symmetry_Int_Tables_number   1
_chemical_formula_structural   NaCl
_chemical_formula_sum   'Na4 Cl4'
_cell_volume   362.02998599
_cell_formula_units_Z   4
loop_
 _symmetry_equiv_pos_site_id
 _symmetry_equiv_pos_as_xyz
  1  'x, y, z'
loop_
 _atom_site_type_symbol
 _atom_site_label
 _atom_site_symmetry_multiplicity
 _atom_site_fract_x
 _atom_site_fract_y
 _atom_site_fract_z
 _atom_site_occupancy
  Na  Na0  1  0.59868958  0.50534225  0.99979594  1.0
  Na  Na1  1  0.83313049  0.08144921  0.00606233  1.0
  Na  Na2  1  0.25867391  0.43520517  0.09610037  1.0
  Na  Na3  1  0.14508774  0.60558622  0.80753048  1.0
  Cl  Cl4  1  0.44825510  0.98416419  0.76126581  1.0
  Cl  Cl5  1  0.06108043  0.49392667  0.19750119  1.0
  Cl  Cl6  1  0.72270541  0.05174427  0.15491765  1.0
  Cl  Cl7  1  0.46151523  0.05583751  0.76253009  1.0
