# generated using pymatgen
data_NaCl
_symmetry_space_group_name_H-M   'P 1'
_cell_length_a   2.00562515
_cell_length_b   11.24605856
_cell_length_c   10.38636589
_cell_angle_alpha   90.00000000
_cell_angle_beta   90.00000000
_cell_angle_gamma   90.00000000
_symmetry_Int_Tables_number   1
_chemical_formula_structural   NaCl
_chemical_formula_sum   'Na4 Cl4'
_cell_volume   234.26840751
_cell_formula_units_Z   4
loop_
 _symmetry_equiv_pos_site_id
 _symmetry_equiv_pos_as_xyz
  1  'x, y, z'
loop_
 _atom_site_type_symbol
 _atom_site_label
 _atom_site_symmetry_multiplicity
 _atom_site_fract_x
 _atom_site_fract_y
 _atom_site_fract_z
 _atom_site_occupancy
  Na  Na0  1  0.35547670  0.30160326  0.86215652  1.0
  Na  Na1  1  0.17579655  0.03773782  0.22360873  1.0
  Na  Na2  1  0.03973568  0.17069310  0.60879016  1.0
  Na  Na3  1  0.65688741  0.67593265  0.11955140  1.0
  Cl  Cl4  1  0.53847535  0.80527829  0.76057510  1.0
  Cl  Cl5  1  0.97580152  0.17823519  0.84035183  1.0
  Cl  Cl6  1  0.41967794  0.55397431  0.67267796  1.0
  Cl  Cl7  1  0.22611883  0.90682890  0.31245480  1.0
