# generated using pymatgen
data_NaCl
_symmetry_space_group_name_H-M   'P 1'
_cell_length_a   8.77015848
_cell_length_b   15.39119707
_cell_length_c   2.78877172
_cell_angle_alpha   90.00000000
_cell_angle_beta   90.00000000
_cell_angle_gamma   90.00000000
_symmetry_Int_Tables_number   1
_chemical_formula_structural   NaCl
_chemical_formula_sum   'Na4 Cl4'
_cell_volume   376.43743542
_cell_formula_units_Z   4
loop_
 _symmetry_equiv_pos_site_id
 _symmetry_equiv_pos_as_xyz
  1  'x, y, z'
loop_
 _atom_site_type_symbol
 _atom_site_label
 _atom_site_symmetry_multiplicity
 _atom_site_fract_x
 _atom_site_fract_y
 _atom_site_fract_z
 _atom_site_occupancy
  Na  Na0  1  0.56612124  0.63309151  0.96409982  1.0
  Na  Na1  1  0.67571312  0.33828608  0.19874338  1.0
  Na  Na2  1  0.87243927  0.53426242  0.50028245  1.0
  Na  Na3  1  0.74381541  0.00103149  0.18811727  1.0
  Cl  Cl4  1  0.00000000  0.54409304  0.49833488  1.0
  Cl  Cl5  1  0.50000000  0.47746276  0.14494857  1.0
  Cl  Cl6  1  0.00000000  0.89641949  0.14116829  1.0
  Cl  Cl7  1  0.50000000  0.26332139  0.01012195  1.0
