# generated using pymatgen
data_NaCl
_symmetry_space_group_name_H-M   'P 1'
_cell_length_a   4.64948236
_cell_length_b   9.09174037
_cell_length_c   8.22155422
_cell_angle_alpha   90.00000000
_cell_angle_beta   90.00000000
_cell_angle_gamma   90.00000000
_symmetry_Int_Tables_number   1
_chemical_formula_structural   NaCl
_chemical_formula_sum   'Na4 Cl4'
_cell_volume   347.54060661
_cell_formula_units_Z   4
loop_
 _symmetry_equiv_pos_site_id
 _symmetry_equiv_pos_as_xyz
  1  'x, y, z'
loop_
 _atom_site_type_symbol
 _atom_site_label
 _atom_site_symmetry_multiplicity
 _atom_site_fract_x
 _atom_site_fract_y
 _atom_site_fract_z
 _atom_site_occupancy
  Na  Na0  1  0.71366016  0.27428799  0.93264351  1.0
  Na  Na1  1  0.36647443  0.02230717  0.43047995  1.0
  Na  Na2  1  0.95797509  0.71007197  0.03562231  1.0
  Na  Na3  1  0.05950582  0.24906406  0.68463484  1.0
  Cl  Cl4  1  0.66382744  0.71399737  0.85458269  1.0
  Cl  Cl5  1  0.99996095  0.31858652  0.94948132  1.0
  Cl  Cl6  1  0.83943115  0.24413721  0.22238150  1.0
  Cl  Cl7  1  0.64546223  0.40609667  0.75426623  1.0
