# generated using pymatgen
data_NaCl
_symmetry_space_group_name_H-M   'P 1'
_cell_length_a   5.46266863
_cell_length_b   4.94596198
_cell_length_c   8.82587579
_cell_angle_alpha   90.00000000
_cell_angle_beta   90.00000000
_cell_angle_gamma   90.00000000
_symmetry_Int_Tables_number   1
_chemical_formula_structural   NaCl
_chemical_formula_sum   'Na4 Cl4'
_cell_volume   238.45884792
_cell_formula_units_Z   4
loop_
 _symmetry_equiv_pos_site_id
 _symmetry_equiv_pos_as_xyz
  1  'x, y, z'
loop_
 _atom_site_type_symbol
 _atom_site_label
 _atom_site_symmetry_multiplicity
 _atom_site_fract_x
 _atom_site_fract_y
 _atom_site_fract_z
 _atom_site_occupancy
  Na  Na0  1  0.00000000  0.34018002  0.90693294  1.0
  Na  Na1  1  0.00000000  0.02443017  0.41161612  1.0
  Na  Na2  1  0.50000000  0.08880070  0.01888068  1.0
  Na  Na3  1  0.50000000  0.86376556  0.84553781  1.0
  Cl  Cl4  1  0.00000000  0.87329009  0.73045953  1.0
  Cl  Cl5  1  0.00000000  0.14269461  0.08299113  1.0
  Cl  Cl6  1  0.50000000  0.79904146  0.22506190  1.0
  Cl  Cl7  1  0.50000000  0.67833801  0.31877812  1.0
