# generated using pymatgen
data_NaCl
_symmetry_space_group_name_H-M   'P 1'
_cell_length_a   5.08541369
_cell_length_b   17.43452920
_cell_length_c   7.07478448
_cell_angle_alpha   90.00000000
_cell_angle_beta   154.88068182
_cell_angle_gamma   90.00000000
_symmetry_Int_Tables_number   1
_chemical_formula_structural   NaCl
_chemical_formula_sum   'Na4 Cl4'
_cell_volume   266.27614177
_cell_formula_units_Z   4
loop_
 _symmetry_equiv_pos_site_id
 _symmetry_equiv_pos_as_xyz
  1  'x, y, z'
loop_
 _atom_site_type_symbol
 _atom_site_label
 _atom_site_symmetry_multiplicity
 _atom_site_fract_x
 _atom_site_fract_y
 _atom_site_fract_z
 _atom_site_occupancy
  Na  Na0  1  0.88878177  0.60028024  0.93663793  1.0
  Na  Na1  1  0.21436914  0.03775600  0.00016978  1.0
  Na  Na2  1  0.30772506  0.68267968  0.05052112  1.0
  Na  Na3  1  0.75183265  0.67506801  0.79855673  1.0
  Cl  Cl4  1  0.76741269  0.93042946  0.35623459  1.0
  Cl  Cl5  1  0.92268977  0.13173390  0.44479648  1.0
  Cl  Cl6  1  0.44115569  0.31233485  0.00014694  1.0
  Cl  Cl7  1  0.44980455  0.40731805  0.73273245  1.0
