# generated using pymatgen
data_NaCl
_symmetry_space_group_name_H-M   'P 1'
_cell_length_a   4.24381723
_cell_length_b   8.73824516
_cell_length_c   5.91431648
_cell_angle_alpha   90.00000000
_cell_angle_beta   90.00000000
_cell_angle_gamma   90.00000000
_symmetry_Int_Tables_number   1
_chemical_formula_structural   NaCl
_chemical_formula_sum   'Na4 Cl4'
_cell_volume   219.32364609
_cell_formula_units_Z   4
loop_
 _symmetry_equiv_pos_site_id
 _symmetry_equiv_pos_as_xyz
  1  'x, y, z'
loop_
 _atom_site_type_symbol
 _atom_site_label
 _atom_site_symmetry_multiplicity
 _atom_site_fract_x
 _atom_site_fract_y
 _atom_site_fract_z
 _atom_site_occupancy
  Na  Na0  1  0.39674687  0.62393977  0.93313032  1.0
  Na  Na1  1  0.01456506  0.40318958  0.75652408  1.0
  Na  Na2  1  0.45470741  0.00850923  0.52744670  1.0
  Na  Na3  1  0.39221401  0.14944955  0.32305177  1.0
  Cl  Cl4  1  0.98803963  0.86490463  0.57579997  1.0
  Cl  Cl5  1  0.83071450  0.37329868  0.52922739  1.0
  Cl  Cl6  1  0.71841549  0.08410107  0.50000807  1.0
  Cl  Cl7  1  0.72216125  0.18848286  0.69020662  1.0
