# generated using pymatgen
data_NaCl
_symmetry_space_group_name_H-M   'P 1'
_cell_length_a   4.24688228
_cell_length_b   4.24688228
_cell_length_c   8.53306317
_cell_angle_alpha   90.00000000
_cell_angle_beta   90.00000000
_cell_angle_gamma   90.00000000
_symmetry_Int_Tables_number   1
_chemical_formula_structural   NaCl
_chemical_formula_sum   'Na4 Cl4'
_cell_volume   153.90240499
_cell_formula_units_Z   4
loop_
 _symmetry_equiv_pos_site_id
 _symmetry_equiv_pos_as_xyz
  1  'x, y, z'
loop_
 _atom_site_type_symbol
 _atom_site_label
 _atom_site_symmetry_multiplicity
 _atom_site_fract_x
 _atom_site_fract_y
 _atom_site_fract_z
 _atom_site_occupancy
  Na  Na0  1  0.41278626  0.38814221  0.92001955  1.0
  Na  Na1  1  0.15430322  0.92053070  0.18671707  1.0
  Na  Na2  1  0.65723402  0.30287995  0.78128636  1.0
  Na  Na3  1  0.18963009  0.85720316  0.77974594  1.0
  Cl  Cl4  1  0.76040406  0.73214764  0.75817384  1.0
  Cl  Cl5  1  0.92470879  0.42396900  0.09082699  1.0
  Cl  Cl6  1  0.84321733  0.87645162  0.92063638  1.0
  Cl  Cl7  1  0.92442293  0.56936777  0.46924168  1.0
