# generated using pymatgen
data_NaCl
_symmetry_space_group_name_H-M   'P 1'
_cell_length_a   6.78429390
_cell_length_b   6.78429390
_cell_length_c   3.35495019
_cell_angle_alpha   90.00000000
_cell_angle_beta   90.00000000
_cell_angle_gamma   90.00000000
_symmetry_Int_Tables_number   1
_chemical_formula_structural   NaCl
_chemical_formula_sum   'Na4 Cl4'
_cell_volume   154.41709710
_cell_formula_units_Z   4
loop_
 _symmetry_equiv_pos_site_id
 _symmetry_equiv_pos_as_xyz
  1  'x, y, z'
loop_
 _atom_site_type_symbol
 _atom_site_label
 _atom_site_symmetry_multiplicity
 _atom_site_fract_x
 _atom_site_fract_y
 _atom_site_fract_z
 _atom_site_occupancy
  Na  Na0  1  0.59445015  0.54410238  0.95367838  1.0
  Na  Na1  1  0.18838769  0.49193620  0.26705387  1.0
  Na  Na2  1  0.47087257  0.18503803  0.78671907  1.0
  Na  Na3  1  0.28851145  0.87362534  0.46699191  1.0
  Cl  Cl4  1  0.90194952  0.73217389  0.64191481  1.0
  Cl  Cl5  1  0.98315565  0.26434755  0.89419744  1.0
  Cl  Cl6  1  0.63609704  0.97405435  0.83046032  1.0
  Cl  Cl7  1  0.88459385  0.46660516  0.71004538  1.0
