# generated using pymatgen
data_NaCl
_symmetry_space_group_name_H-M   'P 1'
_cell_length_a   7.07612276
_cell_length_b   8.61161893
_cell_length_c   5.92243583
_cell_angle_alpha   90.00000000
_cell_angle_beta   32.01659661
_cell_angle_gamma   90.00000000
_symmetry_Int_Tables_number   1
_chemical_formula_structural   NaCl
_chemical_formula_sum   'Na4 Cl4'
_cell_volume   191.33370945
_cell_formula_units_Z   4
loop_
 _symmetry_equiv_pos_site_id
 _symmetry_equiv_pos_as_xyz
  1  'x, y, z'
loop_
 _atom_site_type_symbol
 _atom_site_label
 _atom_site_symmetry_multiplicity
 _atom_site_fract_x
 _atom_site_fract_y
 _atom_site_fract_z
 _atom_site_occupancy
  Na  Na0  1  0.72038503  0.66987697  0.94908952  1.0
  Na  Na1  1  0.98926672  0.10593871  0.47310573  1.0
  Na  Na2  1  0.01597085  0.89950357  0.03590066  1.0
  Na  Na3  1  0.79201329  0.20502173  0.23667362  1.0
  Cl  Cl4  1  0.87608635  0.00000000  0.25259117  1.0
  Cl  Cl5  1  0.71455780  0.50000000  0.53359165  1.0
  Cl  Cl6  1  0.76622540  0.00000000  0.07955291  1.0
  Cl  Cl7  1  0.00653175  0.50000000  0.22668610  1.0
