# generated using pymatgen
data_NaCl
_symmetry_space_group_name_H-M   'P 1'
_cell_length_a   5.27542378
_cell_length_b   5.27542378
_cell_length_c   14.00118130
_cell_angle_alpha   90.00000000
_cell_angle_beta   90.00000000
_cell_angle_gamma   90.00000000
_symmetry_Int_Tables_number   1
_chemical_formula_structural   NaCl
_chemical_formula_sum   'Na4 Cl4'
_cell_volume   389.65422051
_cell_formula_units_Z   4
loop_
 _symmetry_equiv_pos_site_id
 _symmetry_equiv_pos_as_xyz
  1  'x, y, z'
loop_
 _atom_site_type_symbol
 _atom_site_label
 _atom_site_symmetry_multiplicity
 _atom_site_fract_x
 _atom_site_fract_y
 _atom_site_fract_z
 _atom_site_occupancy
  Na  Na0  1  0.41822708  0.27276598  0.87036679  1.0
  Na  Na1  1  0.20722694  0.55446435  0.48325626  1.0
  Na  Na2  1  0.51806163  0.32884337  0.77814373  1.0
  Na  Na3  1  0.19055766  0.86260549  0.53853400  1.0
  Cl  Cl4  1  0.63394736  0.65689338  0.38249951  1.0
  Cl  Cl5  1  0.89848496  0.38188218  0.11051484  1.0
  Cl  Cl6  1  0.58071133  0.61515993  0.98309012  1.0
  Cl  Cl7  1  0.88782719  0.67823632  0.48447846  1.0
