# generated using pymatgen
data_NaCl
_symmetry_space_group_name_H-M   'P 1'
_cell_length_a   5.24077469
_cell_length_b   14.08040392
_cell_length_c   9.02073393
_cell_angle_alpha   90.00000000
_cell_angle_beta   20.07672294
_cell_angle_gamma   90.00000000
_symmetry_Int_Tables_number   1
_chemical_formula_structural   NaCl
_chemical_formula_sum   'Na4 Cl4'
_cell_volume   228.50654033
_cell_formula_units_Z   4
loop_
 _symmetry_equiv_pos_site_id
 _symmetry_equiv_pos_as_xyz
  1  'x, y, z'
loop_
 _atom_site_type_symbol
 _atom_site_label
 _atom_site_symmetry_multiplicity
 _atom_site_fract_x
 _atom_site_fract_y
 _atom_site_fract_z
 _atom_site_occupancy
  Na  Na0  1  0.43954491  0.30378072  0.94223299  1.0
  Na  Na1  1  0.92688430  0.47553552  0.46998979  1.0
  Na  Na2  1  0.91159009  0.94369564  0.03713865  1.0
  Na  Na3  1  0.58295353  0.15086056  0.91970049  1.0
  Cl  Cl4  1  0.71936359  0.66700723  0.66466749  1.0
  Cl  Cl5  1  0.09452781  0.48520563  0.04706811  1.0
  Cl  Cl6  1  0.01862598  0.86675977  0.89842562  1.0
  Cl  Cl7  1  0.86992459  0.68184440  0.02518665  1.0
