# generated using pymatgen
data_NaCl
_symmetry_space_group_name_H-M   'P 1'
_cell_length_a   4.06330179
_cell_length_b   18.25505891
_cell_length_c   3.79557888
_cell_angle_alpha   90.00000000
_cell_angle_beta   90.00000000
_cell_angle_gamma   90.00000000
_symmetry_Int_Tables_number   1
_chemical_formula_structural   NaCl
_chemical_formula_sum   'Na4 Cl4'
_cell_volume   281.54015130
_cell_formula_units_Z   4
loop_
 _symmetry_equiv_pos_site_id
 _symmetry_equiv_pos_as_xyz
  1  'x, y, z'
loop_
 _atom_site_type_symbol
 _atom_site_label
 _atom_site_symmetry_multiplicity
 _atom_site_fract_x
 _atom_site_fract_y
 _atom_site_fract_z
 _atom_site_occupancy
  Na  Na0  1  0.61046908  0.73050710  0.95695276  1.0
  Na  Na1  1  0.32870015  0.44574793  0.46156304  1.0
  Na  Na2  1  0.62640597  0.05683110  0.12553890  1.0
  Na  Na3  1  0.58539154  0.83778161  0.82960479  1.0
  Cl  Cl4  1  0.91431485  0.72868141  0.42684958  1.0
  Cl  Cl5  1  0.91752203  0.28924298  0.92180776  1.0
  Cl  Cl6  1  0.46421619  0.24807804  0.16058492  1.0
  Cl  Cl7  1  0.00020070  0.16835542  0.93081312  1.0
