# generated using pymatgen
data_NaCl
_symmetry_space_group_name_H-M   'P 1'
_cell_length_a   4.55288810
_cell_length_b   3.98384080
_cell_length_c   10.37939216
_cell_angle_alpha   90.00000000
_cell_angle_beta   90.00000000
_cell_angle_gamma   90.00000000
_symmetry_Int_Tables_number   1
_chemical_formula_structural   NaCl
_chemical_formula_sum   'Na4 Cl4'
_cell_volume   188.26122164
_cell_formula_units_Z   4
loop_
 _symmetry_equiv_pos_site_id
 _symmetry_equiv_pos_as_xyz
  1  'x, y, z'
loop_
 _atom_site_type_symbol
 _atom_site_label
 _atom_site_symmetry_multiplicity
 _atom_site_fract_x
 _atom_site_fract_y
 _atom_site_fract_z
 _atom_site_occupancy
  Na  Na0  1  0.38283461  0.38002068  0.89918622  1.0
  Na  Na1  1  0.10876595  0.07444991  0.21320853  1.0
  Na  Na2  1  0.81350599  0.66586045  0.07159875  1.0
  Na  Na3  1  0.38014566  0.02494627  0.73883490  1.0
  Cl  Cl4  1  0.09434090  0.50948863  0.60096049  1.0
  Cl  Cl5  1  0.92950897  0.48347257  0.17702492  1.0
  Cl  Cl6  1  0.35491067  0.28279717  0.28086320  1.0
  Cl  Cl7  1  0.02714265  0.49801777  0.07765595  1.0
