# generated using pymatgen
data_NaCl
_symmetry_space_group_name_H-M   'P 1'
_cell_length_a   5.03881456
_cell_length_b   5.03881456
_cell_length_c   11.65780645
_cell_angle_alpha   90.00000000
_cell_angle_beta   90.00000000
_cell_angle_gamma   90.00000000
_symmetry_Int_Tables_number   1
_chemical_formula_structural   NaCl
_chemical_formula_sum   'Na4 Cl4'
_cell_volume   295.98765083
_cell_formula_units_Z   4
loop_
 _symmetry_equiv_pos_site_id
 _symmetry_equiv_pos_as_xyz
  1  'x, y, z'
loop_
 _atom_site_type_symbol
 _atom_site_label
 _atom_site_symmetry_multiplicity
 _atom_site_fract_x
 _atom_site_fract_y
 _atom_site_fract_z
 _atom_site_occupancy
  Na  Na0  1  0.35900971  0.26930499  0.91274888  1.0
  Na  Na1  1  0.03552722  0.43928780  0.49907781  1.0
  Na  Na2  1  0.44810070  0.32739148  0.30694978  1.0
  Na  Na3  1  0.13994875  0.90366151  0.23883830  1.0
  Cl  Cl4  1  0.61132983  0.65657992  0.42559002  1.0
  Cl  Cl5  1  0.88258161  0.38394048  0.80942709  1.0
  Cl  Cl6  1  0.45443064  0.78904970  0.33094501  1.0
  Cl  Cl7  1  0.72902368  0.37529853  0.57637491  1.0
