# generated using pymatgen
data_NaCl
_symmetry_space_group_name_H-M   'P 1'
_cell_length_a   5.17210663
_cell_length_b   15.23495644
_cell_length_c   4.18021340
_cell_angle_alpha   90.00000000
_cell_angle_beta   87.28108945
_cell_angle_gamma   90.00000000
_symmetry_Int_Tables_number   1
_chemical_formula_structural   NaCl
_chemical_formula_sum   'Na4 Cl4'
_cell_volume   329.01671912
_cell_formula_units_Z   4
loop_
 _symmetry_equiv_pos_site_id
 _symmetry_equiv_pos_as_xyz
  1  'x, y, z'
loop_
 _atom_site_type_symbol
 _atom_site_label
 _atom_site_symmetry_multiplicity
 _atom_site_fract_x
 _atom_site_fract_y
 _atom_site_fract_z
 _atom_site_occupancy
  Na  Na0  1  0.41787440  0.52939969  0.87139953  1.0
  Na  Na1  1  0.90059066  0.05430960  0.30289226  1.0
  Na  Na2  1  0.83696561  0.99656017  0.06936972  1.0
  Na  Na3  1  0.91314520  0.24926822  0.75772127  1.0
  Cl  Cl4  1  0.88932038  0.83883922  0.60287342  1.0
  Cl  Cl5  1  0.01546640  0.46323464  0.02151840  1.0
  Cl  Cl6  1  0.05474054  0.58518274  0.10205920  1.0
  Cl  Cl7  1  0.86579887  0.62605242  0.14524104  1.0
