# generated using pymatgen
data_NaCl
_symmetry_space_group_name_H-M   'P 1'
_cell_length_a   5.51695115
_cell_length_b   5.51695115
_cell_length_c   12.06864193
_cell_angle_alpha   90.00000000
_cell_angle_beta   90.00000000
_cell_angle_gamma   90.00000000
_symmetry_Int_Tables_number   1
_chemical_formula_structural   NaCl
_chemical_formula_sum   'Na4 Cl4'
_cell_volume   367.33023716
_cell_formula_units_Z   4
loop_
 _symmetry_equiv_pos_site_id
 _symmetry_equiv_pos_as_xyz
  1  'x, y, z'
loop_
 _atom_site_type_symbol
 _atom_site_label
 _atom_site_symmetry_multiplicity
 _atom_site_fract_x
 _atom_site_fract_y
 _atom_site_fract_z
 _atom_site_occupancy
  Na  Na0  1  0.55292906  0.64413316  0.96596730  1.0
  Na  Na1  1  0.12147554  0.46984704  0.48378143  1.0
  Na  Na2  1  0.49107486  0.34763143  0.37740515  1.0
  Na  Na3  1  0.29291604  0.90764362  0.93273055  1.0
  Cl  Cl4  1  0.91706382  0.64646226  0.30531585  1.0
  Cl  Cl5  1  0.89681214  0.33230691  0.97085310  1.0
  Cl  Cl6  1  0.62152604  0.95042725  0.27070926  1.0
  Cl  Cl7  1  0.87185564  0.48854363  0.14122771  1.0
