# generated using pymatgen
data_NaCl
_symmetry_space_group_name_H-M   'P 1'
_cell_length_a   7.15487998
_cell_length_b   7.15487998
_cell_length_c   7.15487998
_cell_angle_alpha   90.00000000
_cell_angle_beta   90.00000000
_cell_angle_gamma   90.00000000
_symmetry_Int_Tables_number   1
_chemical_formula_structural   NaCl
_chemical_formula_sum   'Na4 Cl4'
_cell_volume   366.27481626
_cell_formula_units_Z   4
loop_
 _symmetry_equiv_pos_site_id
 _symmetry_equiv_pos_as_xyz
  1  'x, y, z'
loop_
 _atom_site_type_symbol
 _atom_site_label
 _atom_site_symmetry_multiplicity
 _atom_site_fract_x
 _atom_site_fract_y
 _atom_site_fract_z
 _atom_site_occupancy
  Na  Na0  1  0.46090247  0.46090247  0.46090247  1.0
  Na  Na1  1  0.03300197  0.53300197  0.96699803  1.0
  Na  Na2  1  0.65646400  0.84353600  0.15646400  1.0
  Na  Na3  1  0.68179008  0.31820992  0.81820992  1.0
  Cl  Cl4  1  0.36196458  0.36196458  0.36196458  1.0
  Cl  Cl5  1  0.42851392  0.92851392  0.57148608  1.0
  Cl  Cl6  1  0.08739791  0.41260209  0.58739791  1.0
  Cl  Cl7  1  0.90124750  0.09875250  0.59875250  1.0
