# generated using pymatgen
data_NaCl
_symmetry_space_group_name_H-M   'P 1'
_cell_length_a   6.61121229
_cell_length_b   18.05773758
_cell_length_c   2.01905259
_cell_angle_alpha   90.00000000
_cell_angle_beta   90.00000000
_cell_angle_gamma   90.00000000
_symmetry_Int_Tables_number   1
_chemical_formula_structural   NaCl
_chemical_formula_sum   'Na4 Cl4'
_cell_volume   241.04163881
_cell_formula_units_Z   4
loop_
 _symmetry_equiv_pos_site_id
 _symmetry_equiv_pos_as_xyz
  1  'x, y, z'
loop_
 _atom_site_type_symbol
 _atom_site_label
 _atom_site_symmetry_multiplicity
 _atom_site_fract_x
 _atom_site_fract_y
 _atom_site_fract_z
 _atom_site_occupancy
  Na  Na0  1  0.70167761  0.82734782  0.81991190  1.0
  Na  Na1  1  0.74788148  0.54005270  0.49889686  1.0
  Na  Na2  1  0.85569653  0.01846882  0.35923936  1.0
  Na  Na3  1  0.80645830  0.24892488  0.72669936  1.0
  Cl  Cl4  1  0.88489146  0.67315530  0.31651964  1.0
  Cl  Cl5  1  0.40262499  0.30344181  0.98467535  1.0
  Cl  Cl6  1  0.08019406  0.72329246  0.41940762  1.0
  Cl  Cl7  1  0.02002717  0.76882858  0.55378105  1.0
