# generated using pymatgen
data_NaCl
_symmetry_space_group_name_H-M   'P 1'
_cell_length_a   6.43132949
_cell_length_b   6.43132949
_cell_length_c   9.14534848
_cell_angle_alpha   90.00000000
_cell_angle_beta   90.00000000
_cell_angle_gamma   90.00000000
_symmetry_Int_Tables_number   1
_chemical_formula_structural   NaCl
_chemical_formula_sum   'Na4 Cl4'
_cell_volume   378.26989477
_cell_formula_units_Z   4
loop_
 _symmetry_equiv_pos_site_id
 _symmetry_equiv_pos_as_xyz
  1  'x, y, z'
loop_
 _atom_site_type_symbol
 _atom_site_label
 _atom_site_symmetry_multiplicity
 _atom_site_fract_x
 _atom_site_fract_y
 _atom_site_fract_z
 _atom_site_occupancy
  Na  Na0  1  0.59521868  0.37794112  0.99982979  1.0
  Na  Na1  1  0.27975204  0.01865698  0.25297301  1.0
  Na  Na2  1  0.25390709  0.34489732  0.81448388  1.0
  Na  Na3  1  0.43501732  0.74814550  0.39194157  1.0
  Cl  Cl4  1  0.11912693  0.82969640  0.87935711  1.0
  Cl  Cl5  1  0.92907185  0.53850068  0.93526159  1.0
  Cl  Cl6  1  0.71314568  0.90498363  0.94940531  1.0
  Cl  Cl7  1  0.90421724  0.48582099  0.49742486  1.0
