# generated using pymatgen
data_NaCl
_symmetry_space_group_name_H-M   'P 1'
_cell_length_a   4.21385605
_cell_length_b   12.54128165
_cell_length_c   7.60003504
_cell_angle_alpha   90.00000000
_cell_angle_beta   90.00000000
_cell_angle_gamma   90.00000000
_symmetry_Int_Tables_number   1
_chemical_formula_structural   NaCl
_chemical_formula_sum   'Na4 Cl4'
_cell_volume   401.64023399
_cell_formula_units_Z   4
loop_
 _symmetry_equiv_pos_site_id
 _symmetry_equiv_pos_as_xyz
  1  'x, y, z'
loop_
 _atom_site_type_symbol
 _atom_site_label
 _atom_site_symmetry_multiplicity
 _atom_site_fract_x
 _atom_site_fract_y
 _atom_site_fract_z
 _atom_site_occupancy
  Na  Na0  1  0.00000000  0.44122628  0.94354935  1.0
  Na  Na1  1  0.00000000  0.10300226  0.76848557  1.0
  Na  Na2  1  0.50000000  0.14918851  0.09342984  1.0
  Na  Na3  1  0.50000000  0.86410395  0.79896865  1.0
  Cl  Cl4  1  0.00000000  0.86607806  0.76619308  1.0
  Cl  Cl5  1  0.00000000  0.13269972  0.36479757  1.0
  Cl  Cl6  1  0.50000000  0.42376662  0.14263014  1.0
  Cl  Cl7  1  0.50000000  0.49582780  0.20205387  1.0
