# generated using pymatgen
data_NaCl
_symmetry_space_group_name_H-M   'P 1'
_cell_length_a   2.89956079
_cell_length_b   17.32859323
_cell_length_c   14.82719936
_cell_angle_alpha   90.00000000
_cell_angle_beta   28.97180304
_cell_angle_gamma   90.00000000
_symmetry_Int_Tables_number   1
_chemical_formula_structural   NaCl
_chemical_formula_sum   'Na4 Cl4'
_cell_volume   360.86110935
_cell_formula_units_Z   4
loop_
 _symmetry_equiv_pos_site_id
 _symmetry_equiv_pos_as_xyz
  1  'x, y, z'
loop_
 _atom_site_type_symbol
 _atom_site_label
 _atom_site_symmetry_multiplicity
 _atom_site_fract_x
 _atom_site_fract_y
 _atom_site_fract_z
 _atom_site_occupancy
  Na  Na0  1  0.55600110  0.44348390  0.93422180  1.0
  Na  Na1  1  0.06376360  0.10749836  0.10613340  1.0
  Na  Na2  1  0.18870347  0.72338972  0.44453208  1.0
  Na  Na3  1  0.67400010  0.15155126  0.74073449  1.0
  Cl  Cl4  1  0.70886823  0.79290767  0.74969375  1.0
  Cl  Cl5  1  0.89271395  0.24138761  0.55058392  1.0
  Cl  Cl6  1  0.40896244  0.29334296  0.16103187  1.0
  Cl  Cl7  1  0.45022004  0.40740529  0.51994923  1.0
