# generated using pymatgen
data_NaCl
_symmetry_space_group_name_H-M   'P 1'
_cell_length_a   5.76199223
_cell_length_b   5.76199223
_cell_length_c   5.76199223
_cell_angle_alpha   90.00000000
_cell_angle_beta   90.00000000
_cell_angle_gamma   90.00000000
_symmetry_Int_Tables_number   1
_chemical_formula_structural   NaCl
_chemical_formula_sum   'Na4 Cl4'
_cell_volume   191.30133682
_cell_formula_units_Z   4
loop_
 _symmetry_equiv_pos_site_id
 _symmetry_equiv_pos_as_xyz
  1  'x, y, z'
loop_
 _atom_site_type_symbol
 _atom_site_label
 _atom_site_symmetry_multiplicity
 _atom_site_fract_x
 _atom_site_fract_y
 _atom_site_fract_z
 _atom_site_occupancy
  Na  Na0  1  0.45398806  0.45398806  0.45398806  1.0
  Na  Na1  1  0.80516680  0.30516680  0.19483320  1.0
  Na  Na2  1  0.73548490  0.76451510  0.23548490  1.0
  Na  Na3  1  0.69854169  0.30145831  0.80145831  1.0
  Cl  Cl4  1  0.56425595  0.56425595  0.56425595  1.0
  Cl  Cl5  1  0.31768964  0.81768964  0.68231036  1.0
  Cl  Cl6  1  0.33746623  0.16253377  0.83746623  1.0
  Cl  Cl7  1  0.11429251  0.88570749  0.38570749  1.0
