# generated using pymatgen
data_NaCl
_symmetry_space_group_name_H-M   'P 1'
_cell_length_a   2.68227727
_cell_length_b   9.73882593
_cell_length_c   6.14310650
_cell_angle_alpha   90.00000000
_cell_angle_beta   90.00000000
_cell_angle_gamma   90.00000000
_symmetry_Int_Tables_number   1
_chemical_formula_structural   NaCl
_chemical_formula_sum   'Na4 Cl4'
_cell_volume   160.47164968
_cell_formula_units_Z   4
loop_
 _symmetry_equiv_pos_site_id
 _symmetry_equiv_pos_as_xyz
  1  'x, y, z'
loop_
 _atom_site_type_symbol
 _atom_site_label
 _atom_site_symmetry_multiplicity
 _atom_site_fract_x
 _atom_site_fract_y
 _atom_site_fract_z
 _atom_site_occupancy
  Na  Na0  1  0.36631660  0.62825675  0.96630184  1.0
  Na  Na1  1  0.21609127  0.04156746  0.01135969  1.0
  Na  Na2  1  0.82696467  0.58066470  0.16421916  1.0
  Na  Na3  1  0.00786979  0.12871381  0.74144605  1.0
  Cl  Cl4  1  0.80736315  0.91516436  0.55951200  1.0
  Cl  Cl5  1  0.88275274  0.29948063  0.93897354  1.0
  Cl  Cl6  1  0.50287301  0.84487703  0.14752022  1.0
  Cl  Cl7  1  0.06922043  0.89268118  0.98423427  1.0
