# generated using pymatgen
data_NaCl
_symmetry_space_group_name_H-M   'P 1'
_cell_length_a   5.12262210
_cell_length_b   5.12262210
_cell_length_c   14.68719339
_cell_angle_alpha   90.00000000
_cell_angle_beta   90.00000000
_cell_angle_gamma   90.00000000
_symmetry_Int_Tables_number   1
_chemical_formula_structural   NaCl
_chemical_formula_sum   'Na4 Cl4'
_cell_volume   385.41041899
_cell_formula_units_Z   4
loop_
 _symmetry_equiv_pos_site_id
 _symmetry_equiv_pos_as_xyz
  1  'x, y, z'
loop_
 _atom_site_type_symbol
 _atom_site_label
 _atom_site_symmetry_multiplicity
 _atom_site_fract_x
 _atom_site_fract_y
 _atom_site_fract_z
 _atom_site_occupancy
  Na  Na0  1  0.69031943  0.43579628  0.86461432  1.0
  Na  Na1  1  0.26224962  0.13022097  0.44913311  1.0
  Na  Na2  1  0.15843545  0.30783943  0.33528749  1.0
  Na  Na3  1  0.51984176  0.49324922  0.99192415  1.0
  Cl  Cl4  1  0.52813997  0.87080003  0.27866120  1.0
  Cl  Cl5  1  0.88606494  0.66982578  0.15780471  1.0
  Cl  Cl6  1  0.62693175  0.85842060  0.58529100  1.0
  Cl  Cl7  1  0.83023394  0.61330102  0.21674758  1.0
