# generated using pymatgen
data_NaCl
_symmetry_space_group_name_H-M   'P 1'
_cell_length_a   4.90808456
_cell_length_b   18.60023080
_cell_length_c   10.44092522
_cell_angle_alpha   90.00000000
_cell_angle_beta   23.66104221
_cell_angle_gamma   90.00000000
_symmetry_Int_Tables_number   1
_chemical_formula_structural   NaCl
_chemical_formula_sum   'Na4 Cl4'
_cell_volume   382.53014315
_cell_formula_units_Z   4
loop_
 _symmetry_equiv_pos_site_id
 _symmetry_equiv_pos_as_xyz
  1  'x, y, z'
loop_
 _atom_site_type_symbol
 _atom_site_label
 _atom_site_symmetry_multiplicity
 _atom_site_fract_x
 _atom_site_fract_y
 _atom_site_fract_z
 _atom_site_occupancy
  Na  Na0  1  0.00000000  0.35688345  0.50000000  1.0
  Na  Na1  1  0.50000000  0.41582996  0.50000000  1.0
  Na  Na2  1  0.00000000  0.78076992  0.50000000  1.0
  Na  Na3  1  0.50000000  0.97051182  0.50000000  1.0
  Cl  Cl4  1  0.57883634  0.76678929  0.76839837  1.0
  Cl  Cl5  1  0.90306186  0.58803454  0.55678301  1.0
  Cl  Cl6  1  0.49977668  0.84436152  0.21811306  1.0
  Cl  Cl7  1  0.05740417  0.29800065  0.75690107  1.0
