# generated using pymatgen
data_NaCl
_symmetry_space_group_name_H-M   'P 1'
_cell_length_a   4.93895859
_cell_length_b   4.93895859
_cell_length_c   13.00033242
_cell_angle_alpha   90.00000000
_cell_angle_beta   90.00000000
_cell_angle_gamma   90.00000000
_symmetry_Int_Tables_number   1
_chemical_formula_structural   NaCl
_chemical_formula_sum   'Na4 Cl4'
_cell_volume   317.12116422
_cell_formula_units_Z   4
loop_
 _symmetry_equiv_pos_site_id
 _symmetry_equiv_pos_as_xyz
  1  'x, y, z'
loop_
 _atom_site_type_symbol
 _atom_site_label
 _atom_site_symmetry_multiplicity
 _atom_site_fract_x
 _atom_site_fract_y
 _atom_site_fract_z
 _atom_site_occupancy
  Na  Na0  1  0.42815978  0.32181132  0.92100275  1.0
  Na  Na1  1  0.11752811  0.03662360  0.30924602  1.0
  Na  Na2  1  0.22733686  0.26400766  0.79411479  1.0
  Na  Na3  1  0.59048935  0.72650094  0.65918093  1.0
  Cl  Cl4  1  0.54029539  0.66353501  0.74430411  1.0
  Cl  Cl5  1  0.93512088  0.48566189  0.14187585  1.0
  Cl  Cl6  1  0.57225630  0.90840244  0.95207117  1.0
  Cl  Cl7  1  0.89883195  0.55603022  0.60235703  1.0
