# generated using pymatgen
data_NaCl
_symmetry_space_group_name_H-M   'P 1'
_cell_length_a   6.16831136
_cell_length_b   6.16831136
_cell_length_c   6.90385318
_cell_angle_alpha   90.00000000
_cell_angle_beta   90.00000000
_cell_angle_gamma   90.00000000
_symmetry_Int_Tables_number   1
_chemical_formula_structural   NaCl
_chemical_formula_sum   'Na4 Cl4'
_cell_volume   262.67825478
_cell_formula_units_Z   4
loop_
 _symmetry_equiv_pos_site_id
 _symmetry_equiv_pos_as_xyz
  1  'x, y, z'
loop_
 _atom_site_type_symbol
 _atom_site_label
 _atom_site_symmetry_multiplicity
 _atom_site_fract_x
 _atom_site_fract_y
 _atom_site_fract_z
 _atom_site_occupancy
  Na  Na0  1  0.76240567  0.50318078  0.99678198  1.0
  Na  Na1  1  0.25119976  0.21856416  0.26778743  1.0
  Na  Na2  1  0.43492884  0.19987685  0.62961265  1.0
  Na  Na3  1  0.51486591  0.68120833  0.53104833  1.0
  Cl  Cl4  1  0.60403883  0.81183884  0.76349258  1.0
  Cl  Cl5  1  0.82050479  0.33673047  0.88584511  1.0
  Cl  Cl6  1  0.91089035  0.74754585  0.93325423  1.0
  Cl  Cl7  1  0.87097556  0.12937113  0.34055481  1.0
