# generated using pymatgen
data_NaCl
_symmetry_space_group_name_H-M   'P 1'
_cell_length_a   5.69403950
_cell_length_b   12.60423264
_cell_length_c   4.29281841
_cell_angle_alpha   90.00000000
_cell_angle_beta   101.54498816
_cell_angle_gamma   90.00000000
_symmetry_Int_Tables_number   1
_chemical_formula_structural   NaCl
_chemical_formula_sum   'Na4 Cl4'
_cell_volume   301.85793241
_cell_formula_units_Z   4
loop_
 _symmetry_equiv_pos_site_id
 _symmetry_equiv_pos_as_xyz
  1  'x, y, z'
loop_
 _atom_site_type_symbol
 _atom_site_label
 _atom_site_symmetry_multiplicity
 _atom_site_fract_x
 _atom_site_fract_y
 _atom_site_fract_z
 _atom_site_occupancy
  Na  Na0  1  0.42106929  0.76867026  0.91002011  1.0
  Na  Na1  1  0.05858505  0.98492409  0.13436030  1.0
  Na  Na2  1  0.55477212  0.43517865  0.04435318  1.0
  Na  Na3  1  0.41003420  0.00295065  0.79409233  1.0
  Cl  Cl4  1  0.83086475  0.68684047  0.48454409  1.0
  Cl  Cl5  1  0.91180407  0.18584505  0.41431494  1.0
  Cl  Cl6  1  0.78698150  0.00940126  0.01513225  1.0
  Cl  Cl7  1  0.70778882  0.25412452  0.39564240  1.0
