# generated using pymatgen
data_NaCl
_symmetry_space_group_name_H-M   'P 1'
_cell_length_a   7.21438430
_cell_length_b   7.21438430
_cell_length_c   7.21438430
_cell_angle_alpha   90.00000000
_cell_angle_beta   90.00000000
_cell_angle_gamma   90.00000000
_symmetry_Int_Tables_number   1
_chemical_formula_structural   NaCl
_chemical_formula_sum   'Na4 Cl4'
_cell_volume   375.48951853
_cell_formula_units_Z   4
loop_
 _symmetry_equiv_pos_site_id
 _symmetry_equiv_pos_as_xyz
  1  'x, y, z'
loop_
 _atom_site_type_symbol
 _atom_site_label
 _atom_site_symmetry_multiplicity
 _atom_site_fract_x
 _atom_site_fract_y
 _atom_site_fract_z
 _atom_site_occupancy
  Na  Na0  1  0.30950249  0.30950249  0.30950249  1.0
  Na  Na1  1  0.64606114  0.14606114  0.35393886  1.0
  Na  Na2  1  0.75077840  0.74922160  0.25077840  1.0
  Na  Na3  1  0.71610039  0.28389961  0.78389961  1.0
  Cl  Cl4  1  0.41512947  0.41512947  0.41512947  1.0
  Cl  Cl5  1  0.48330133  0.98330133  0.51669867  1.0
  Cl  Cl6  1  0.06293760  0.43706240  0.56293760  1.0
  Cl  Cl7  1  0.94710697  0.05289303  0.55289303  1.0
