# generated using pymatgen
data_NaCl
_symmetry_space_group_name_H-M   'P 1'
_cell_length_a   4.62863865
_cell_length_b   12.45826160
_cell_length_c   13.38510954
_cell_angle_alpha   90.00000000
_cell_angle_beta   24.08339948
_cell_angle_gamma   90.00000000
_symmetry_Int_Tables_number   1
_chemical_formula_structural   NaCl
_chemical_formula_sum   'Na4 Cl4'
_cell_volume   314.96552943
_cell_formula_units_Z   4
loop_
 _symmetry_equiv_pos_site_id
 _symmetry_equiv_pos_as_xyz
  1  'x, y, z'
loop_
 _atom_site_type_symbol
 _atom_site_label
 _atom_site_symmetry_multiplicity
 _atom_site_fract_x
 _atom_site_fract_y
 _atom_site_fract_z
 _atom_site_occupancy
  Na  Na0  1  0.42065571  0.55442398  0.89807685  1.0
  Na  Na1  1  0.10551370  0.83138232  0.29987865  1.0
  Na  Na2  1  0.18031561  0.79948666  0.15182929  1.0
  Na  Na3  1  0.84112286  0.81322780  0.77830867  1.0
  Cl  Cl4  1  0.52436592  0.59789526  0.78694504  1.0
  Cl  Cl5  1  0.89952694  0.08964921  0.65192960  1.0
  Cl  Cl6  1  0.92891609  0.38852973  0.08097295  1.0
  Cl  Cl7  1  0.44067007  0.36278095  0.47578102  1.0
