# generated using pymatgen
data_NaCl
_symmetry_space_group_name_H-M   'P 1'
_cell_length_a   5.33906019
_cell_length_b   15.84403528
_cell_length_c   3.61986234
_cell_angle_alpha   90.00000000
_cell_angle_beta   31.24727244
_cell_angle_gamma   90.00000000
_symmetry_Int_Tables_number   1
_chemical_formula_structural   NaCl
_chemical_formula_sum   'Na4 Cl4'
_cell_volume   158.84230521
_cell_formula_units_Z   4
loop_
 _symmetry_equiv_pos_site_id
 _symmetry_equiv_pos_as_xyz
  1  'x, y, z'
loop_
 _atom_site_type_symbol
 _atom_site_label
 _atom_site_symmetry_multiplicity
 _atom_site_fract_x
 _atom_site_fract_y
 _atom_site_fract_z
 _atom_site_occupancy
  Na  Na0  1  0.00000000  0.88342562  0.00000000  1.0
  Na  Na1  1  0.00000000  0.44146221  0.00000000  1.0
  Na  Na2  1  0.00000000  0.49871272  0.50000000  1.0
  Na  Na3  1  0.50000000  0.08703749  0.50000000  1.0
  Cl  Cl4  1  0.00000000  0.74811016  0.00000000  1.0
  Cl  Cl5  1  0.50000000  0.71120094  0.50000000  1.0
  Cl  Cl6  1  0.50000000  0.29249648  0.50000000  1.0
  Cl  Cl7  1  0.50000000  0.76560454  0.50000000  1.0
