# generated using pymatgen
data_NaCl
_symmetry_space_group_name_H-M   'P 1'
_cell_length_a   5.64919251
_cell_length_b   5.02583127
_cell_length_c   10.45395415
_cell_angle_alpha   90.00000000
_cell_angle_beta   90.00000000
_cell_angle_gamma   90.00000000
_symmetry_Int_Tables_number   1
_chemical_formula_structural   NaCl
_chemical_formula_sum   'Na4 Cl4'
_cell_volume   296.80749922
_cell_formula_units_Z   4
loop_
 _symmetry_equiv_pos_site_id
 _symmetry_equiv_pos_as_xyz
  1  'x, y, z'
loop_
 _atom_site_type_symbol
 _atom_site_label
 _atom_site_symmetry_multiplicity
 _atom_site_fract_x
 _atom_site_fract_y
 _atom_site_fract_z
 _atom_site_occupancy
  Na  Na0  1  0.71941745  0.25000000  0.91692840  1.0
  Na  Na1  1  0.51847369  0.25000000  0.72405971  1.0
  Na  Na2  1  0.87231744  0.75000000  0.96116287  1.0
  Na  Na3  1  0.97291717  0.75000000  0.78827831  1.0
  Cl  Cl4  1  0.25000000  0.25000000  0.72181012  1.0
  Cl  Cl5  1  0.75000000  0.75000000  0.40844166  1.0
  Cl  Cl6  1  0.25000000  0.25000000  0.17949779  1.0
  Cl  Cl7  1  0.75000000  0.75000000  0.58263265  1.0
