# generated using pymatgen
data_NaCl
_symmetry_space_group_name_H-M   'P 1'
_cell_length_a   8.12553342
_cell_length_b   8.12553342
_cell_length_c   4.46058712
_cell_angle_alpha   90.00000000
_cell_angle_beta   90.00000000
_cell_angle_gamma   90.00000000
_symmetry_Int_Tables_number   1
_chemical_formula_structural   NaCl
_chemical_formula_sum   'Na4 Cl4'
_cell_volume   294.50711257
_cell_formula_units_Z   4
loop_
 _symmetry_equiv_pos_site_id
 _symmetry_equiv_pos_as_xyz
  1  'x, y, z'
loop_
 _atom_site_type_symbol
 _atom_site_label
 _atom_site_symmetry_multiplicity
 _atom_site_fract_x
 _atom_site_fract_y
 _atom_site_fract_z
 _atom_site_occupancy
  Na  Na0  1  0.45459714  0.16740916  0.99993169  1.0
  Na  Na1  1  0.06025312  0.44437683  0.15276439  1.0
  Na  Na2  1  0.44877575  0.34106564  0.99876535  1.0
  Na  Na3  1  0.22184432  0.52345349  0.65577633  1.0
  Cl  Cl4  1  0.91514291  0.79949970  0.19562474  1.0
  Cl  Cl5  1  0.97056601  0.24764194  0.01463019  1.0
  Cl  Cl6  1  0.46633792  0.84955074  0.81116535  1.0
  Cl  Cl7  1  0.80550579  0.62913673  0.90814890  1.0
