# generated using pymatgen
data_NaCl
_symmetry_space_group_name_H-M   'P 1'
_cell_length_a   6.08435005
_cell_length_b   6.08435005
_cell_length_c   6.08435005
_cell_angle_alpha   90.00000000
_cell_angle_beta   90.00000000
_cell_angle_gamma   90.00000000
_symmetry_Int_Tables_number   1
_chemical_formula_structural   NaCl
_chemical_formula_sum   'Na4 Cl4'
_cell_volume   225.23847430
_cell_formula_units_Z   4
loop_
 _symmetry_equiv_pos_site_id
 _symmetry_equiv_pos_as_xyz
  1  'x, y, z'
loop_
 _atom_site_type_symbol
 _atom_site_label
 _atom_site_symmetry_multiplicity
 _atom_site_fract_x
 _atom_site_fract_y
 _atom_site_fract_z
 _atom_site_occupancy
  Na  Na0  1  0.70030766  0.70030766  0.70030766  1.0
  Na  Na1  1  0.73557563  0.23557563  0.26442437  1.0
  Na  Na2  1  0.69067708  0.80932292  0.19067708  1.0
  Na  Na3  1  0.77085471  0.22914529  0.72914529  1.0
  Cl  Cl4  1  0.48245482  0.48245482  0.48245482  1.0
  Cl  Cl5  1  0.43155896  0.93155896  0.56844104  1.0
  Cl  Cl6  1  0.06000662  0.43999338  0.56000662  1.0
  Cl  Cl7  1  0.99626205  0.00373795  0.50373795  1.0
