# generated using pymatgen
data_NaCl
_symmetry_space_group_name_H-M   'P 1'
_cell_length_a   5.51262947
_cell_length_b   5.51262947
_cell_length_c   8.75912217
_cell_angle_alpha   90.00000000
_cell_angle_beta   90.00000000
_cell_angle_gamma   90.00000000
_symmetry_Int_Tables_number   1
_chemical_formula_structural   NaCl
_chemical_formula_sum   'Na4 Cl4'
_cell_volume   266.18169653
_cell_formula_units_Z   4
loop_
 _symmetry_equiv_pos_site_id
 _symmetry_equiv_pos_as_xyz
  1  'x, y, z'
loop_
 _atom_site_type_symbol
 _atom_site_label
 _atom_site_symmetry_multiplicity
 _atom_site_fract_x
 _atom_site_fract_y
 _atom_site_fract_z
 _atom_site_occupancy
  Na  Na0  1  0.25694136  0.28143824  0.95168010  1.0
  Na  Na1  1  0.21621898  0.06180916  0.29092491  1.0
  Na  Na2  1  0.57276810  0.38849021  0.31429737  1.0
  Na  Na3  1  0.13598318  0.94524615  0.04983839  1.0
  Cl  Cl4  1  0.25340276  0.80555241  0.82980879  1.0
  Cl  Cl5  1  0.99951383  0.46257874  0.05537450  1.0
  Cl  Cl6  1  0.58748947  0.79863021  0.38645392  1.0
  Cl  Cl7  1  0.87440523  0.53888821  0.99166799  1.0
