# generated using pymatgen
data_NaCl
_symmetry_space_group_name_H-M   'P 1'
_cell_length_a   8.42890987
_cell_length_b   12.19106574
_cell_length_c   2.01122200
_cell_angle_alpha   90.00000000
_cell_angle_beta   90.00000000
_cell_angle_gamma   90.00000000
_symmetry_Int_Tables_number   1
_chemical_formula_structural   NaCl
_chemical_formula_sum   'Na4 Cl4'
_cell_volume   206.66793216
_cell_formula_units_Z   4
loop_
 _symmetry_equiv_pos_site_id
 _symmetry_equiv_pos_as_xyz
  1  'x, y, z'
loop_
 _atom_site_type_symbol
 _atom_site_label
 _atom_site_symmetry_multiplicity
 _atom_site_fract_x
 _atom_site_fract_y
 _atom_site_fract_z
 _atom_site_occupancy
  Na  Na0  1  0.49530092  0.59102593  0.88158789  1.0
  Na  Na1  1  0.07621861  0.05877822  0.13791628  1.0
  Na  Na2  1  0.01822817  0.55456451  0.98878682  1.0
  Na  Na3  1  0.91669186  0.13944872  0.76848723  1.0
  Cl  Cl4  1  0.84626298  0.80819797  0.79166373  1.0
  Cl  Cl5  1  0.97971219  0.24068159  0.11430278  1.0
  Cl  Cl6  1  0.27889301  0.59708148  0.02479839  1.0
  Cl  Cl7  1  0.08461026  0.21095459  0.82158046  1.0
