# generated using pymatgen
data_NaCl
_symmetry_space_group_name_H-M   'P 1'
_cell_length_a   7.34600671
_cell_length_b   17.98584740
_cell_length_c   4.13639032
_cell_angle_alpha   90.00000000
_cell_angle_beta   32.98466676
_cell_angle_gamma   90.00000000
_symmetry_Int_Tables_number   1
_chemical_formula_structural   NaCl
_chemical_formula_sum   'Na4 Cl4'
_cell_volume   297.53186268
_cell_formula_units_Z   4
loop_
 _symmetry_equiv_pos_site_id
 _symmetry_equiv_pos_as_xyz
  1  'x, y, z'
loop_
 _atom_site_type_symbol
 _atom_site_label
 _atom_site_symmetry_multiplicity
 _atom_site_fract_x
 _atom_site_fract_y
 _atom_site_fract_z
 _atom_site_occupancy
  Na  Na0  1  0.46066406  0.42320063  0.98171349  1.0
  Na  Na1  1  0.13802689  0.02633713  0.00099887  1.0
  Na  Na2  1  0.59922983  0.24200975  0.46860669  1.0
  Na  Na3  1  0.12886138  0.58036032  0.29521175  1.0
  Cl  Cl4  1  0.87582276  0.25000000  0.54081549  1.0
  Cl  Cl5  1  0.98341497  0.75000000  0.40792683  1.0
  Cl  Cl6  1  0.98528170  0.25000000  0.18271957  1.0
  Cl  Cl7  1  0.49409767  0.75000000  0.75018754  1.0
