# generated using pymatgen
data_NaCl
_symmetry_space_group_name_H-M   'P 1'
_cell_length_a   6.98904416
_cell_length_b   6.98904416
_cell_length_c   3.39191857
_cell_angle_alpha   90.00000000
_cell_angle_beta   90.00000000
_cell_angle_gamma   90.00000000
_symmetry_Int_Tables_number   1
_chemical_formula_structural   NaCl
_chemical_formula_sum   'Na4 Cl4'
_cell_volume   165.68415862
_cell_formula_units_Z   4
loop_
 _symmetry_equiv_pos_site_id
 _symmetry_equiv_pos_as_xyz
  1  'x, y, z'
loop_
 _atom_site_type_symbol
 _atom_site_label
 _atom_site_symmetry_multiplicity
 _atom_site_fract_x
 _atom_site_fract_y
 _atom_site_fract_z
 _atom_site_occupancy
  Na  Na0  1  0.53274129  0.42277061  0.90673258  1.0
  Na  Na1  1  0.31113423  0.24905208  0.34280212  1.0
  Na  Na2  1  0.35122299  0.06716883  0.87773001  1.0
  Na  Na3  1  0.46102614  0.79958952  0.25108582  1.0
  Cl  Cl4  1  0.43091625  0.81968408  0.89585802  1.0
  Cl  Cl5  1  0.94911219  0.13933501  0.73068608  1.0
  Cl  Cl6  1  0.87127486  0.52075848  0.02659879  1.0
  Cl  Cl7  1  0.42617786  0.49003054  0.56107725  1.0
