# generated using pymatgen
data_NaCl
_symmetry_space_group_name_H-M   'P 1'
_cell_length_a   4.08909912
_cell_length_b   12.15183202
_cell_length_c   9.94092635
_cell_angle_alpha   90.00000000
_cell_angle_beta   141.53007157
_cell_angle_gamma   90.00000000
_symmetry_Int_Tables_number   1
_chemical_formula_structural   NaCl
_chemical_formula_sum   'Na4 Cl4'
_cell_volume   307.29755605
_cell_formula_units_Z   4
loop_
 _symmetry_equiv_pos_site_id
 _symmetry_equiv_pos_as_xyz
  1  'x, y, z'
loop_
 _atom_site_type_symbol
 _atom_site_label
 _atom_site_symmetry_multiplicity
 _atom_site_fract_x
 _atom_site_fract_y
 _atom_site_fract_z
 _atom_site_occupancy
  Na  Na0  1  0.51158998  0.34743682  0.98163469  1.0
  Na  Na1  1  0.72249048  0.49244434  0.34360439  1.0
  Na  Na2  1  0.77966839  0.98186142  0.04453973  1.0
  Na  Na3  1  0.73944837  0.86174247  0.04933309  1.0
  Cl  Cl4  1  0.63399415  0.90315077  0.25764816  1.0
  Cl  Cl5  1  0.09312482  0.44453834  0.82356132  1.0
  Cl  Cl6  1  0.19014638  0.00533565  0.07167846  1.0
  Cl  Cl7  1  0.15761445  0.68301037  0.77560210  1.0
