# generated using pymatgen
data_NaCl
_symmetry_space_group_name_H-M   'P 1'
_cell_length_a   5.05165131
_cell_length_b   19.46473999
_cell_length_c   2.64635644
_cell_angle_alpha   90.00000000
_cell_angle_beta   90.00000000
_cell_angle_gamma   90.00000000
_symmetry_Int_Tables_number   1
_chemical_formula_structural   NaCl
_chemical_formula_sum   'Na4 Cl4'
_cell_volume   260.21379216
_cell_formula_units_Z   4
loop_
 _symmetry_equiv_pos_site_id
 _symmetry_equiv_pos_as_xyz
  1  'x, y, z'
loop_
 _atom_site_type_symbol
 _atom_site_label
 _atom_site_symmetry_multiplicity
 _atom_site_fract_x
 _atom_site_fract_y
 _atom_site_fract_z
 _atom_site_occupancy
  Na  Na0  1  0.00000000  0.59307516  0.91841588  1.0
  Na  Na1  1  0.00000000  0.03832828  0.45206858  1.0
  Na  Na2  1  0.50000000  0.30002290  0.05299004  1.0
  Na  Na3  1  0.50000000  0.91215996  0.73512687  1.0
  Cl  Cl4  1  0.00000000  0.93454836  0.87141985  1.0
  Cl  Cl5  1  0.00000000  0.35361908  0.92537258  1.0
  Cl  Cl6  1  0.50000000  0.75046592  0.24787721  1.0
  Cl  Cl7  1  0.50000000  0.61382286  0.91691222  1.0
