# generated using pymatgen
data_NaCl
_symmetry_space_group_name_H-M   'P 1'
_cell_length_a   5.92141496
_cell_length_b   3.41022784
_cell_length_c   8.17696085
_cell_angle_alpha   90.00000000
_cell_angle_beta   90.00000000
_cell_angle_gamma   90.00000000
_symmetry_Int_Tables_number   1
_chemical_formula_structural   NaCl
_chemical_formula_sum   'Na4 Cl4'
_cell_volume   165.12042984
_cell_formula_units_Z   4
loop_
 _symmetry_equiv_pos_site_id
 _symmetry_equiv_pos_as_xyz
  1  'x, y, z'
loop_
 _atom_site_type_symbol
 _atom_site_label
 _atom_site_symmetry_multiplicity
 _atom_site_fract_x
 _atom_site_fract_y
 _atom_site_fract_z
 _atom_site_occupancy
  Na  Na0  1  0.02336892  0.43333504  0.42349840  1.0
  Na  Na1  1  0.42075335  0.81575869  0.80153850  1.0
  Na  Na2  1  0.15269080  0.94030994  0.61646071  1.0
  Na  Na3  1  0.82494525  0.53260546  0.96500299  1.0
  Cl  Cl4  1  0.00000000  0.00137919  0.53367538  1.0
  Cl  Cl5  1  0.00000000  0.11335592  0.67382914  1.0
  Cl  Cl6  1  0.00000000  0.75263584  0.94124882  1.0
  Cl  Cl7  1  0.00000000  0.23084153  0.21963522  1.0
