# generated using pymatgen
data_NaCl
_symmetry_space_group_name_H-M   'P 1'
_cell_length_a   5.80565067
_cell_length_b   4.69141254
_cell_length_c   15.20181451
_cell_angle_alpha   90.00000000
_cell_angle_beta   61.15883030
_cell_angle_gamma   90.00000000
_symmetry_Int_Tables_number   1
_chemical_formula_structural   NaCl
_chemical_formula_sum   'Na4 Cl4'
_cell_volume   362.68899096
_cell_formula_units_Z   4
loop_
 _symmetry_equiv_pos_site_id
 _symmetry_equiv_pos_as_xyz
  1  'x, y, z'
loop_
 _atom_site_type_symbol
 _atom_site_label
 _atom_site_symmetry_multiplicity
 _atom_site_fract_x
 _atom_site_fract_y
 _atom_site_fract_z
 _atom_site_occupancy
  Na  Na0  1  0.01914308  0.63403462  0.23291803  1.0
  Na  Na1  1  0.12102119  0.21033270  0.77256587  1.0
  Na  Na2  1  0.21601343  0.26060189  0.22773044  1.0
  Na  Na3  1  0.90984689  0.95320864  0.10415950  1.0
  Cl  Cl4  1  0.82014349  0.21503017  0.31773271  1.0
  Cl  Cl5  1  0.88793110  0.31610677  0.17168448  1.0
  Cl  Cl6  1  0.87770713  0.76379830  0.98075676  1.0
  Cl  Cl7  1  0.79486478  0.80813064  0.39290364  1.0
