# generated using pymatgen
data_NaCl
_symmetry_space_group_name_H-M   'P 1'
_cell_length_a   7.81359944
_cell_length_b   2.98668866
_cell_length_c   14.35261095
_cell_angle_alpha   90.00000000
_cell_angle_beta   90.00000000
_cell_angle_gamma   90.00000000
_symmetry_Int_Tables_number   1
_chemical_formula_structural   NaCl
_chemical_formula_sum   'Na4 Cl4'
_cell_volume   334.94385106
_cell_formula_units_Z   4
loop_
 _symmetry_equiv_pos_site_id
 _symmetry_equiv_pos_as_xyz
  1  'x, y, z'
loop_
 _atom_site_type_symbol
 _atom_site_label
 _atom_site_symmetry_multiplicity
 _atom_site_fract_x
 _atom_site_fract_y
 _atom_site_fract_z
 _atom_site_occupancy
  Na  Na0  1  0.07487197  0.45096498  0.18694139  1.0
  Na  Na1  1  0.69771073  0.49428026  0.77224348  1.0
  Na  Na2  1  0.87593046  0.85693901  0.26127219  1.0
  Na  Na3  1  0.72090124  0.03861701  0.05744517  1.0
  Cl  Cl4  1  0.00075971  0.20741584  0.29787241  1.0
  Cl  Cl5  1  0.35950632  0.17991279  0.96413448  1.0
  Cl  Cl6  1  0.16867837  0.34136857  0.61778303  1.0
  Cl  Cl7  1  0.61916054  0.33784113  0.51459888  1.0
