# generated using pymatgen
data_NaCl
_symmetry_space_group_name_H-M   'P 1'
_cell_length_a   2.01942706
_cell_length_b   8.10289317
_cell_length_c   9.91869963
_cell_angle_alpha   90.00000000
_cell_angle_beta   90.00000000
_cell_angle_gamma   90.00000000
_symmetry_Int_Tables_number   1
_chemical_formula_structural   NaCl
_chemical_formula_sum   'Na4 Cl4'
_cell_volume   162.30168296
_cell_formula_units_Z   4
loop_
 _symmetry_equiv_pos_site_id
 _symmetry_equiv_pos_as_xyz
  1  'x, y, z'
loop_
 _atom_site_type_symbol
 _atom_site_label
 _atom_site_symmetry_multiplicity
 _atom_site_fract_x
 _atom_site_fract_y
 _atom_site_fract_z
 _atom_site_occupancy
  Na  Na0  1  0.04706002  0.44707649  0.59266387  1.0
  Na  Na1  1  0.07980917  0.54645071  0.79574605  1.0
  Na  Na2  1  0.63277535  0.71777715  0.16565816  1.0
  Na  Na3  1  0.46032081  0.62514596  0.44905329  1.0
  Cl  Cl4  1  0.00104067  0.08051784  0.48359170  1.0
  Cl  Cl5  1  0.76117622  0.24413373  0.85361866  1.0
  Cl  Cl6  1  0.35717346  0.12401621  0.60343738  1.0
  Cl  Cl7  1  0.40483687  0.82469965  0.76061487  1.0
