# generated using pymatgen
data_NaCl
_symmetry_space_group_name_H-M   'P 1'
_cell_length_a   6.19831556
_cell_length_b   4.34856886
_cell_length_c   16.61269855
_cell_angle_alpha   83.87572052
_cell_angle_beta   75.52098511
_cell_angle_gamma   112.18486012
_symmetry_Int_Tables_number   1
_chemical_formula_structural   NaCl
_chemical_formula_sum   'Na4 Cl4'
_cell_volume   391.22928907
_cell_formula_units_Z   4
loop_
 _symmetry_equiv_pos_site_id
 _symmetry_equiv_pos_as_xyz
  1  'x, y, z'
loop_
 _atom_site_type_symbol
 _atom_site_label
 _atom_site_symmetry_multiplicity
 _atom_site_fract_x
 _atom_site_fract_y
 _atom_site_fract_z
 _atom_site_occupancy
  Na  Na0  1  0.03628106  0.55581685  0.26980095  1.0
  Na  Na1  1  0.28061223  0.47034494  0.72895770  1.0
  Na  Na2  1  0.11019262  0.07696837  0.32710468  1.0
  Na  Na3  1  0.99991995  0.58814760  0.17609294  1.0
  Cl  Cl4  1  0.00000000  0.00000000  0.00000000  1.0
  Cl  Cl5  1  0.00000000  0.50000000  0.50000000  1.0
  Cl  Cl6  1  0.50000000  0.00000000  0.50000000  1.0
  Cl  Cl7  1  0.50000000  0.50000000  0.00000000  1.0
