# generated using pymatgen
data_NaCl
_symmetry_space_group_name_H-M   'P 1'
_cell_length_a   6.74962391
_cell_length_b   2.02549249
_cell_length_c   17.92474248
_cell_angle_alpha   90.00000000
_cell_angle_beta   90.00000000
_cell_angle_gamma   90.00000000
_symmetry_Int_Tables_number   1
_chemical_formula_structural   NaCl
_chemical_formula_sum   'Na4 Cl4'
_cell_volume   245.05475664
_cell_formula_units_Z   4
loop_
 _symmetry_equiv_pos_site_id
 _symmetry_equiv_pos_as_xyz
  1  'x, y, z'
loop_
 _atom_site_type_symbol
 _atom_site_label
 _atom_site_symmetry_multiplicity
 _atom_site_fract_x
 _atom_site_fract_y
 _atom_site_fract_z
 _atom_site_occupancy
  Na  Na0  1  0.00000000  0.49912802  0.20927033  1.0
  Na  Na1  1  0.00000000  0.44767835  0.68527259  1.0
  Na  Na2  1  0.50000000  0.81708203  0.65739885  1.0
  Na  Na3  1  0.50000000  0.87704581  0.28636228  1.0
  Cl  Cl4  1  0.00000000  0.54658353  0.14527176  1.0
  Cl  Cl5  1  0.00000000  0.12766280  0.57195584  1.0
  Cl  Cl6  1  0.50000000  0.23906966  0.48135395  1.0
  Cl  Cl7  1  0.50000000  0.19549661  0.03150699  1.0
