# generated using pymatgen
data_NaCl
_symmetry_space_group_name_H-M   'P 1'
_cell_length_a   6.68324156
_cell_length_b   2.65774213
_cell_length_c   21.67605458
_cell_angle_alpha   90.00000000
_cell_angle_beta   90.00000000
_cell_angle_gamma   90.00000000
_symmetry_Int_Tables_number   1
_chemical_formula_structural   NaCl
_chemical_formula_sum   'Na4 Cl4'
_cell_volume   385.01729218
_cell_formula_units_Z   4
loop_
 _symmetry_equiv_pos_site_id
 _symmetry_equiv_pos_as_xyz
  1  'x, y, z'
loop_
 _atom_site_type_symbol
 _atom_site_label
 _atom_site_symmetry_multiplicity
 _atom_site_fract_x
 _atom_site_fract_y
 _atom_site_fract_z
 _atom_site_occupancy
  Na  Na0  1  0.10816010  0.43427230  0.26848295  1.0
  Na  Na1  1  0.74706808  0.88036316  0.83174429  1.0
  Na  Na2  1  0.91528748  0.94433036  0.39039895  1.0
  Na  Na3  1  0.72894449  0.03041315  0.14080382  1.0
  Cl  Cl4  1  0.22474131  0.07750122  0.36789009  1.0
  Cl  Cl5  1  0.31988499  0.30019016  0.03532592  1.0
  Cl  Cl6  1  0.04758336  0.27470592  0.68381580  1.0
  Cl  Cl7  1  0.92771192  0.29508757  0.30067723  1.0
