# generated using pymatgen
data_NaCl
_symmetry_space_group_name_H-M   'P 1'
_cell_length_a   5.07147629
_cell_length_b   3.81517569
_cell_length_c   19.89951045
_cell_angle_alpha   90.00000000
_cell_angle_beta   46.30877000
_cell_angle_gamma   90.00000000
_symmetry_Int_Tables_number   1
_chemical_formula_structural   NaCl
_chemical_formula_sum   'Na4 Cl4'
_cell_volume   278.40267991
_cell_formula_units_Z   4
loop_
 _symmetry_equiv_pos_site_id
 _symmetry_equiv_pos_as_xyz
  1  'x, y, z'
loop_
 _atom_site_type_symbol
 _atom_site_label
 _atom_site_symmetry_multiplicity
 _atom_site_fract_x
 _atom_site_fract_y
 _atom_site_fract_z
 _atom_site_occupancy
  Na  Na0  1  0.32538018  0.48121786  0.17147629  1.0
  Na  Na1  1  0.28436695  0.69518590  0.77982598  1.0
  Na  Na2  1  0.51917176  0.88695440  0.24204293  1.0
  Na  Na3  1  0.27305209  0.17915498  0.62436052  1.0
  Cl  Cl4  1  0.04457738  0.45621503  0.19740912  1.0
  Cl  Cl5  1  0.78774806  0.69903039  0.55625708  1.0
  Cl  Cl6  1  0.40243056  0.40480662  0.86005480  1.0
  Cl  Cl7  1  0.43376249  0.64322587  0.32181835  1.0
