# generated using pymatgen
data_NaCl
_symmetry_space_group_name_H-M   'P 1'
_cell_length_a   4.68833524
_cell_length_b   4.68833524
_cell_length_c   16.44615212
_cell_angle_alpha   90.00000000
_cell_angle_beta   90.00000000
_cell_angle_gamma   90.00000000
_symmetry_Int_Tables_number   1
_chemical_formula_structural   NaCl
_chemical_formula_sum   'Na4 Cl4'
_cell_volume   361.49443818
_cell_formula_units_Z   4
loop_
 _symmetry_equiv_pos_site_id
 _symmetry_equiv_pos_as_xyz
  1  'x, y, z'
loop_
 _atom_site_type_symbol
 _atom_site_label
 _atom_site_symmetry_multiplicity
 _atom_site_fract_x
 _atom_site_fract_y
 _atom_site_fract_z
 _atom_site_occupancy
  Na  Na0  1  0.08068332  0.58068332  0.13423132  1.0
  Na  Na1  1  0.26966213  0.76966213  0.26534274  1.0
  Na  Na2  1  0.23349152  0.26650848  0.08118190  1.0
  Na  Na3  1  0.64300543  0.85699457  0.21550986  1.0
  Cl  Cl4  1  0.00000000  0.00000000  0.36921315  1.0
  Cl  Cl5  1  0.50000000  0.50000000  0.52650436  1.0
  Cl  Cl6  1  0.00000000  0.00000000  0.93751493  1.0
  Cl  Cl7  1  0.50000000  0.50000000  0.33601634  1.0
