# generated using pymatgen
data_NaCl
_symmetry_space_group_name_H-M   'P 1'
_cell_length_a   8.72065615
_cell_length_b   3.07694173
_cell_length_c   14.88696179
_cell_angle_alpha   90.00000000
_cell_angle_beta   58.86783770
_cell_angle_gamma   90.00000000
_symmetry_Int_Tables_number   1
_chemical_formula_structural   NaCl
_chemical_formula_sum   'Na4 Cl4'
_cell_volume   341.92952559
_cell_formula_units_Z   4
loop_
 _symmetry_equiv_pos_site_id
 _symmetry_equiv_pos_as_xyz
  1  'x, y, z'
loop_
 _atom_site_type_symbol
 _atom_site_label
 _atom_site_symmetry_multiplicity
 _atom_site_fract_x
 _atom_site_fract_y
 _atom_site_fract_z
 _atom_site_occupancy
  Na  Na0  1  0.16394153  0.34511296  0.10797693  1.0
  Na  Na1  1  0.94675988  0.72202974  0.35471593  1.0
  Na  Na2  1  0.64425956  0.75854705  0.06776835  1.0
  Na  Na3  1  0.72484195  0.01061580  0.82663641  1.0
  Cl  Cl4  1  0.25559892  0.22880825  0.89834073  1.0
  Cl  Cl5  1  0.18560947  0.00951898  0.30521569  1.0
  Cl  Cl6  1  0.41899232  0.36381785  0.61899953  1.0
  Cl  Cl7  1  0.67344966  0.35270772  0.48014159  1.0
