# generated using pymatgen
data_NaCl
_symmetry_space_group_name_H-M   'P 1'
_cell_length_a   6.33164914
_cell_length_b   2.03462328
_cell_length_c   13.22464093
_cell_angle_alpha   90.00000000
_cell_angle_beta   90.00000000
_cell_angle_gamma   90.00000000
_symmetry_Int_Tables_number   1
_chemical_formula_structural   NaCl
_chemical_formula_sum   'Na4 Cl4'
_cell_volume   170.36671107
_cell_formula_units_Z   4
loop_
 _symmetry_equiv_pos_site_id
 _symmetry_equiv_pos_as_xyz
  1  'x, y, z'
loop_
 _atom_site_type_symbol
 _atom_site_label
 _atom_site_symmetry_multiplicity
 _atom_site_fract_x
 _atom_site_fract_y
 _atom_site_fract_z
 _atom_site_occupancy
  Na  Na0  1  0.00000000  0.22708073  0.25000000  1.0
  Na  Na1  1  0.00000000  0.46479329  0.75000000  1.0
  Na  Na2  1  0.50000000  0.45229588  0.25000000  1.0
  Na  Na3  1  0.50000000  0.58480385  0.75000000  1.0
  Cl  Cl4  1  0.16877294  0.12178292  0.15656331  1.0
  Cl  Cl5  1  0.66098716  0.15267017  0.86910235  1.0
  Cl  Cl6  1  0.16833756  0.23434991  0.70295622  1.0
  Cl  Cl7  1  0.12310680  0.68743215  0.59476831  1.0
