# generated using pymatgen
data_NaCl
_symmetry_space_group_name_H-M   'P 1'
_cell_length_a   8.85256607
_cell_length_b   8.85256607
_cell_length_c   4.86617959
_cell_angle_alpha   90.00000000
_cell_angle_beta   90.00000000
_cell_angle_gamma   90.00000000
_symmetry_Int_Tables_number   1
_chemical_formula_structural   NaCl
_chemical_formula_sum   'Na4 Cl4'
_cell_volume   381.35240213
_cell_formula_units_Z   4
loop_
 _symmetry_equiv_pos_site_id
 _symmetry_equiv_pos_as_xyz
  1  'x, y, z'
loop_
 _atom_site_type_symbol
 _atom_site_label
 _atom_site_symmetry_multiplicity
 _atom_site_fract_x
 _atom_site_fract_y
 _atom_site_fract_z
 _atom_site_occupancy
  Na  Na0  1  0.24787072  0.88926427  0.24955825  1.0
  Na  Na1  1  0.09278941  0.18238617  0.58505506  1.0
  Na  Na2  1  0.61263213  0.13546464  0.53661464  1.0
  Na  Na3  1  0.43281924  0.28643575  0.63864738  1.0
  Cl  Cl4  1  0.14736296  0.44503984  0.46291922  1.0
  Cl  Cl5  1  0.82654747  0.31991742  0.45676942  1.0
  Cl  Cl6  1  0.59366312  0.93432403  0.93725867  1.0
  Cl  Cl7  1  0.05305898  0.28854506  0.91241369  1.0
