# generated using pymatgen
data_NaCl
_symmetry_space_group_name_H-M   'P 1'
_cell_length_a   5.88771916
_cell_length_b   4.08561850
_cell_length_c   15.92447174
_cell_angle_alpha   70.99753216
_cell_angle_beta   64.78278310
_cell_angle_gamma   44.94231321
_symmetry_Int_Tables_number   1
_chemical_formula_structural   NaCl
_chemical_formula_sum   'Na4 Cl4'
_cell_volume   244.63232255
_cell_formula_units_Z   4
loop_
 _symmetry_equiv_pos_site_id
 _symmetry_equiv_pos_as_xyz
  1  'x, y, z'
loop_
 _atom_site_type_symbol
 _atom_site_label
 _atom_site_symmetry_multiplicity
 _atom_site_fract_x
 _atom_site_fract_y
 _atom_site_fract_z
 _atom_site_occupancy
  Na  Na0  1  0.03076646  0.62947730  0.05209093  1.0
  Na  Na1  1  0.14658751  0.42863355  0.68466866  1.0
  Na  Na2  1  0.06890146  0.25069368  0.26546399  1.0
  Na  Na3  1  0.90793916  0.37326618  0.15232663  1.0
  Cl  Cl4  1  0.00000000  0.00000000  0.50000000  1.0
  Cl  Cl5  1  0.00000000  0.50000000  0.50000000  1.0
  Cl  Cl6  1  0.50000000  0.00000000  0.00000000  1.0
  Cl  Cl7  1  0.50000000  0.00000000  0.50000000  1.0
