# generated using pymatgen
data_NaCl
_symmetry_space_group_name_H-M   'P 1'
_cell_length_a   2.05696153
_cell_length_b   3.78820114
_cell_length_c   15.97813984
_cell_angle_alpha   90.00000000
_cell_angle_beta   90.00000000
_cell_angle_gamma   90.00000000
_symmetry_Int_Tables_number   1
_chemical_formula_structural   NaCl
_chemical_formula_sum   'Na4 Cl4'
_cell_volume   124.50460582
_cell_formula_units_Z   4
loop_
 _symmetry_equiv_pos_site_id
 _symmetry_equiv_pos_as_xyz
  1  'x, y, z'
loop_
 _atom_site_type_symbol
 _atom_site_label
 _atom_site_symmetry_multiplicity
 _atom_site_fract_x
 _atom_site_fract_y
 _atom_site_fract_z
 _atom_site_occupancy
  Na  Na0  1  0.35327334  0.47807976  0.29394890  1.0
  Na  Na1  1  0.04016385  0.34637079  0.70020359  1.0
  Na  Na2  1  0.50072576  0.22293950  0.45235013  1.0
  Na  Na3  1  0.98914642  0.03073780  0.41812759  1.0
  Cl  Cl4  1  0.11229864  0.23630009  0.07963476  1.0
  Cl  Cl5  1  0.88806325  0.22038494  0.12211154  1.0
  Cl  Cl6  1  0.37300729  0.83417593  0.92298153  1.0
  Cl  Cl7  1  0.45421065  0.87766214  0.99152242  1.0
