# generated using pymatgen
data_NaCl
_symmetry_space_group_name_H-M   'P 1'
_cell_length_a   4.52631397
_cell_length_b   4.92159808
_cell_length_c   18.03815355
_cell_angle_alpha   90.00000000
_cell_angle_beta   90.00000000
_cell_angle_gamma   90.00000000
_symmetry_Int_Tables_number   1
_chemical_formula_structural   NaCl
_chemical_formula_sum   'Na4 Cl4'
_cell_volume   401.83050171
_cell_formula_units_Z   4
loop_
 _symmetry_equiv_pos_site_id
 _symmetry_equiv_pos_as_xyz
  1  'x, y, z'
loop_
 _atom_site_type_symbol
 _atom_site_label
 _atom_site_symmetry_multiplicity
 _atom_site_fract_x
 _atom_site_fract_y
 _atom_site_fract_z
 _atom_site_occupancy
  Na  Na0  1  0.25000000  0.55922633  0.00010778  1.0
  Na  Na1  1  0.75000000  0.53038790  0.21211428  1.0
  Na  Na2  1  0.25000000  0.86932746  0.59215875  1.0
  Na  Na3  1  0.75000000  0.01371018  0.34728109  1.0
  Cl  Cl4  1  0.25000000  0.01501390  0.41136451  1.0
  Cl  Cl5  1  0.75000000  0.20818212  0.31801088  1.0
  Cl  Cl6  1  0.25000000  0.32322353  0.30359767  1.0
  Cl  Cl7  1  0.75000000  0.40239978  0.85597354  1.0
