# generated using pymatgen
data_NaCl
_symmetry_space_group_name_H-M   'P 1'
_cell_length_a   3.20980010
_cell_length_b   5.37458613
_cell_length_c   19.75952050
_cell_angle_alpha   90.00000000
_cell_angle_beta   90.00000000
_cell_angle_gamma   90.00000000
_symmetry_Int_Tables_number   1
_chemical_formula_structural   NaCl
_chemical_formula_sum   'Na4 Cl4'
_cell_volume   340.87834663
_cell_formula_units_Z   4
loop_
 _symmetry_equiv_pos_site_id
 _symmetry_equiv_pos_as_xyz
  1  'x, y, z'
loop_
 _atom_site_type_symbol
 _atom_site_label
 _atom_site_symmetry_multiplicity
 _atom_site_fract_x
 _atom_site_fract_y
 _atom_site_fract_z
 _atom_site_occupancy
  Na  Na0  1  0.21697123  0.55572602  0.43151570  1.0
  Na  Na1  1  0.11321445  0.47590362  0.18623890  1.0
  Na  Na2  1  0.70118069  0.63471724  0.52832669  1.0
  Na  Na3  1  0.43649630  0.54852872  0.91882237  1.0
  Cl  Cl4  1  0.25000000  0.07980852  0.19597714  1.0
  Cl  Cl5  1  0.75000000  0.24987783  0.14025776  1.0
  Cl  Cl6  1  0.25000000  0.72516511  0.93293580  1.0
  Cl  Cl7  1  0.75000000  0.79007208  0.60752342  1.0
