# generated using pymatgen
data_NaCl
_symmetry_space_group_name_H-M   'P 1'
_cell_length_a   4.30381299
_cell_length_b   3.16819060
_cell_length_c   17.25119860
_cell_angle_alpha   90.00000000
_cell_angle_beta   90.00000000
_cell_angle_gamma   90.00000000
_symmetry_Int_Tables_number   1
_chemical_formula_structural   NaCl
_chemical_formula_sum   'Na4 Cl4'
_cell_volume   235.22526584
_cell_formula_units_Z   4
loop_
 _symmetry_equiv_pos_site_id
 _symmetry_equiv_pos_as_xyz
  1  'x, y, z'
loop_
 _atom_site_type_symbol
 _atom_site_label
 _atom_site_symmetry_multiplicity
 _atom_site_fract_x
 _atom_site_fract_y
 _atom_site_fract_z
 _atom_site_occupancy
  Na  Na0  1  0.25000000  0.60066884  0.21278574  1.0
  Na  Na1  1  0.75000000  0.56739334  0.40818863  1.0
  Na  Na2  1  0.25000000  0.82013947  0.54758169  1.0
  Na  Na3  1  0.75000000  0.01073516  0.35613484  1.0
  Cl  Cl4  1  0.25000000  0.40595376  0.37896186  1.0
  Cl  Cl5  1  0.75000000  0.11044245  0.21896678  1.0
  Cl  Cl6  1  0.25000000  0.31841814  0.32817010  1.0
  Cl  Cl7  1  0.75000000  0.20645547  0.91323211  1.0
