# generated using pymatgen
data_NaCl
_symmetry_space_group_name_H-M   'P 1'
_cell_length_a   5.20816045
_cell_length_b   5.20816045
_cell_length_c   12.99206999
_cell_angle_alpha   90.00000000
_cell_angle_beta   90.00000000
_cell_angle_gamma   90.00000000
_symmetry_Int_Tables_number   1
_chemical_formula_structural   NaCl
_chemical_formula_sum   'Na4 Cl4'
_cell_volume   352.40905754
_cell_formula_units_Z   4
loop_
 _symmetry_equiv_pos_site_id
 _symmetry_equiv_pos_as_xyz
  1  'x, y, z'
loop_
 _atom_site_type_symbol
 _atom_site_label
 _atom_site_symmetry_multiplicity
 _atom_site_fract_x
 _atom_site_fract_y
 _atom_site_fract_z
 _atom_site_occupancy
  Na  Na0  1  0.05801199  0.37618052  0.39727650  1.0
  Na  Na1  1  0.12236150  0.49791366  0.78710990  1.0
  Na  Na2  1  0.70302067  0.00222388  0.40433719  1.0
  Na  Na3  1  0.38722021  0.84377433  0.64718368  1.0
  Cl  Cl4  1  0.26628909  0.03223183  0.09921434  1.0
  Cl  Cl5  1  0.72261912  0.15453468  0.83459155  1.0
  Cl  Cl6  1  0.16862466  0.77777649  0.15426966  1.0
  Cl  Cl7  1  0.29566662  0.81048407  0.10287200  1.0
