# generated using pymatgen
data_NaCl
_symmetry_space_group_name_H-M   'P 1'
_cell_length_a   4.76240491
_cell_length_b   4.76240491
_cell_length_c   17.71634806
_cell_angle_alpha   90.00000000
_cell_angle_beta   90.00000000
_cell_angle_gamma   90.00000000
_symmetry_Int_Tables_number   1
_chemical_formula_structural   NaCl
_chemical_formula_sum   'Na4 Cl4'
_cell_volume   401.81564151
_cell_formula_units_Z   4
loop_
 _symmetry_equiv_pos_site_id
 _symmetry_equiv_pos_as_xyz
  1  'x, y, z'
loop_
 _atom_site_type_symbol
 _atom_site_label
 _atom_site_symmetry_multiplicity
 _atom_site_fract_x
 _atom_site_fract_y
 _atom_site_fract_z
 _atom_site_occupancy
  Na  Na0  1  0.03556940  0.00000000  0.03505307  1.0
  Na  Na1  1  0.18020726  0.00000000  0.13754381  1.0
  Na  Na2  1  0.00000000  0.18250229  0.55585951  1.0
  Na  Na3  1  0.00000000  0.95758081  0.48015516  1.0
  Cl  Cl4  1  0.50000000  0.50000000  0.35845939  1.0
  Cl  Cl5  1  0.50000000  0.50000000  0.86811115  1.0
  Cl  Cl6  1  0.50000000  0.50000000  0.98358193  1.0
  Cl  Cl7  1  0.50000000  0.50000000  0.70096262  1.0
