# generated using pymatgen
data_NaCl
_symmetry_space_group_name_H-M   'P 1'
_cell_length_a   4.04071881
_cell_length_b   7.60599750
_cell_length_c   18.11870977
_cell_angle_alpha   90.00000000
_cell_angle_beta   45.31465820
_cell_angle_gamma   90.00000000
_symmetry_Int_Tables_number   1
_chemical_formula_structural   NaCl
_chemical_formula_sum   'Na4 Cl4'
_cell_volume   395.91239206
_cell_formula_units_Z   4
loop_
 _symmetry_equiv_pos_site_id
 _symmetry_equiv_pos_as_xyz
  1  'x, y, z'
loop_
 _atom_site_type_symbol
 _atom_site_label
 _atom_site_symmetry_multiplicity
 _atom_site_fract_x
 _atom_site_fract_y
 _atom_site_fract_z
 _atom_site_occupancy
  Na  Na0  1  0.09883181  0.25000000  0.49661168  1.0
  Na  Na1  1  0.20095994  0.75000000  0.66122533  1.0
  Na  Na2  1  0.00034243  0.25000000  0.19112979  1.0
  Na  Na3  1  0.77314098  0.75000000  0.10328783  1.0
  Cl  Cl4  1  0.12877736  0.25000000  0.39733694  1.0
  Cl  Cl5  1  0.73288515  0.75000000  0.57223589  1.0
  Cl  Cl6  1  0.76053579  0.25000000  0.95346776  1.0
  Cl  Cl7  1  0.05221549  0.75000000  0.79446463  1.0
