# generated using pymatgen
data_NaCl
_symmetry_space_group_name_H-M   'P 1'
_cell_length_a   5.38813033
_cell_length_b   5.38813033
_cell_length_c   5.38813033
_cell_angle_alpha   90.00000000
_cell_angle_beta   90.00000000
_cell_angle_gamma   90.00000000
_symmetry_Int_Tables_number   1
_chemical_formula_structural   NaCl
_chemical_formula_sum   'Na4 Cl4'
_cell_volume   156.42792200
_cell_formula_units_Z   4
loop_
 _symmetry_equiv_pos_site_id
 _symmetry_equiv_pos_as_xyz
  1  'x, y, z'
loop_
 _atom_site_type_symbol
 _atom_site_label
 _atom_site_symmetry_multiplicity
 _atom_site_fract_x
 _atom_site_fract_y
 _atom_site_fract_z
 _atom_site_occupancy
  Na  Na0  1  0.18391859  0.18391859  0.18391859  1.0
  Na  Na1  1  0.67127277  0.17127277  0.32872723  1.0
  Na  Na2  1  0.95668441  0.54331559  0.45668441  1.0
  Na  Na3  1  0.59909565  0.40090435  0.90090435  1.0
  Cl  Cl4  1  0.03734824  0.03734824  0.03734824  1.0
  Cl  Cl5  1  0.07317605  0.57317605  0.92682395  1.0
  Cl  Cl6  1  0.15148653  0.34851347  0.65148653  1.0
  Cl  Cl7  1  0.46699000  0.53301000  0.03301000  1.0
