# generated using pymatgen
data_NaCl
_symmetry_space_group_name_H-M   'P 1'
_cell_length_a   5.35112020
_cell_length_b   5.35112020
_cell_length_c   13.55944221
_cell_angle_alpha   90.00000000
_cell_angle_beta   90.00000000
_cell_angle_gamma   90.00000000
_symmetry_Int_Tables_number   1
_chemical_formula_structural   NaCl
_chemical_formula_sum   'Na4 Cl4'
_cell_volume   388.26767704
_cell_formula_units_Z   4
loop_
 _symmetry_equiv_pos_site_id
 _symmetry_equiv_pos_as_xyz
  1  'x, y, z'
loop_
 _atom_site_type_symbol
 _atom_site_label
 _atom_site_symmetry_multiplicity
 _atom_site_fract_x
 _atom_site_fract_y
 _atom_site_fract_z
 _atom_site_occupancy
  Na  Na0  1  0.01162678  0.01162678  0.52756692  1.0
  Na  Na1  1  0.13978386  0.13978386  0.36751200  1.0
  Na  Na2  1  0.99940135  0.00059865  0.15885276  1.0
  Na  Na3  1  0.17896572  0.82103428  0.96127839  1.0
  Cl  Cl4  1  0.23051932  0.00000000  0.20277509  1.0
  Cl  Cl5  1  0.69430275  0.00000000  0.41834862  1.0
  Cl  Cl6  1  0.00000000  0.88403149  0.81802851  1.0
  Cl  Cl7  1  0.00000000  0.84261477  0.39058376  1.0
