# generated using pymatgen
data_NaCl
_symmetry_space_group_name_H-M   'P 1'
_cell_length_a   5.76009286
_cell_length_b   3.26618366
_cell_length_c   14.98164154
_cell_angle_alpha   76.28933432
_cell_angle_beta   54.86025827
_cell_angle_gamma   34.08835711
_symmetry_Int_Tables_number   1
_chemical_formula_structural   NaCl
_chemical_formula_sum   'Na4 Cl4'
_cell_volume   110.11480333
_cell_formula_units_Z   4
loop_
 _symmetry_equiv_pos_site_id
 _symmetry_equiv_pos_as_xyz
  1  'x, y, z'
loop_
 _atom_site_type_symbol
 _atom_site_label
 _atom_site_symmetry_multiplicity
 _atom_site_fract_x
 _atom_site_fract_y
 _atom_site_fract_z
 _atom_site_occupancy
  Na  Na0  1  0.00000000  0.00000000  0.50000000  1.0
  Na  Na1  1  0.50000000  0.00000000  0.50000000  1.0
  Na  Na2  1  0.21991786  0.26914765  0.07087802  1.0
  Na  Na3  1  0.87577884  0.41048318  0.06484438  1.0
  Cl  Cl4  1  0.50000000  0.50000000  0.00000000  1.0
  Cl  Cl5  1  0.50000000  0.50000000  0.50000000  1.0
  Cl  Cl6  1  0.85141728  0.79630981  0.95021108  1.0
  Cl  Cl7  1  0.38001551  0.19969897  0.72550646  1.0
