# generated using pymatgen
data_NaCl
_symmetry_space_group_name_H-M   'P 1'
_cell_length_a   4.29552160
_cell_length_b   4.55441573
_cell_length_c   12.95587377
_cell_angle_alpha   90.00000000
_cell_angle_beta   90.00000000
_cell_angle_gamma   90.00000000
_symmetry_Int_Tables_number   1
_chemical_formula_structural   NaCl
_chemical_formula_sum   'Na4 Cl4'
_cell_volume   253.46341734
_cell_formula_units_Z   4
loop_
 _symmetry_equiv_pos_site_id
 _symmetry_equiv_pos_as_xyz
  1  'x, y, z'
loop_
 _atom_site_type_symbol
 _atom_site_label
 _atom_site_symmetry_multiplicity
 _atom_site_fract_x
 _atom_site_fract_y
 _atom_site_fract_z
 _atom_site_occupancy
  Na  Na0  1  0.01894568  0.50281193  0.20339482  1.0
  Na  Na1  1  0.90114816  0.54259782  0.74402320  1.0
  Na  Na2  1  0.97471244  0.70794116  0.30199283  1.0
  Na  Na3  1  0.58734054  0.87019645  0.16237582  1.0
  Cl  Cl4  1  0.00102444  0.05507448  0.37056059  1.0
  Cl  Cl5  1  0.18468853  0.20404056  0.92062846  1.0
  Cl  Cl6  1  0.20170369  0.33096671  0.63772868  1.0
  Cl  Cl7  1  0.17671096  0.71567608  0.01217522  1.0
