# generated using pymatgen
data_NaCl
_symmetry_space_group_name_H-M   'P 1'
_cell_length_a   5.26420898
_cell_length_b   2.47803194
_cell_length_c   14.09226701
_cell_angle_alpha   90.00000000
_cell_angle_beta   90.00000000
_cell_angle_gamma   90.00000000
_symmetry_Int_Tables_number   1
_chemical_formula_structural   NaCl
_chemical_formula_sum   'Na4 Cl4'
_cell_volume   183.83190377
_cell_formula_units_Z   4
loop_
 _symmetry_equiv_pos_site_id
 _symmetry_equiv_pos_as_xyz
  1  'x, y, z'
loop_
 _atom_site_type_symbol
 _atom_site_label
 _atom_site_symmetry_multiplicity
 _atom_site_fract_x
 _atom_site_fract_y
 _atom_site_fract_z
 _atom_site_occupancy
  Na  Na0  1  0.00000000  0.49875191  0.38830768  1.0
  Na  Na1  1  0.00000000  0.35509736  0.76673365  1.0
  Na  Na2  1  0.50000000  0.74347259  0.21783505  1.0
  Na  Na3  1  0.50000000  0.92723543  0.46703350  1.0
  Cl  Cl4  1  0.00000000  0.31565285  0.29635385  1.0
  Cl  Cl5  1  0.00000000  0.17890778  0.08847176  1.0
  Cl  Cl6  1  0.50000000  0.34295760  0.79611735  1.0
  Cl  Cl7  1  0.50000000  0.25563159  0.97236375  1.0
