# generated using pymatgen
data_NaCl
_symmetry_space_group_name_H-M   'P 1'
_cell_length_a   5.52233745
_cell_length_b   3.31947207
_cell_length_c   12.71575483
_cell_angle_alpha   90.00000000
_cell_angle_beta   72.53222711
_cell_angle_gamma   90.00000000
_symmetry_Int_Tables_number   1
_chemical_formula_structural   NaCl
_chemical_formula_sum   'Na4 Cl4'
_cell_volume   222.34663043
_cell_formula_units_Z   4
loop_
 _symmetry_equiv_pos_site_id
 _symmetry_equiv_pos_as_xyz
  1  'x, y, z'
loop_
 _atom_site_type_symbol
 _atom_site_label
 _atom_site_symmetry_multiplicity
 _atom_site_fract_x
 _atom_site_fract_y
 _atom_site_fract_z
 _atom_site_occupancy
  Na  Na0  1  0.05688251  0.39537501  0.55274537  1.0
  Na  Na1  1  0.08823928  0.64286609  0.69402619  1.0
  Na  Na2  1  0.51779104  0.80124794  0.12574212  1.0
  Na  Na3  1  0.45314354  0.97886752  0.01789551  1.0
  Cl  Cl4  1  0.00000000  0.30533083  0.00000000  1.0
  Cl  Cl5  1  0.50000000  0.38351079  0.00000000  1.0
  Cl  Cl6  1  0.00000000  0.76878121  0.50000000  1.0
  Cl  Cl7  1  0.50000000  0.75331716  0.50000000  1.0
