# generated using pymatgen
data_NaCl
_symmetry_space_group_name_H-M   'P 1'
_cell_length_a   6.10050724
_cell_length_b   2.90092256
_cell_length_c   19.36086226
_cell_angle_alpha   90.00000000
_cell_angle_beta   90.00000000
_cell_angle_gamma   90.00000000
_symmetry_Int_Tables_number   1
_chemical_formula_structural   NaCl
_chemical_formula_sum   'Na4 Cl4'
_cell_volume   342.63109769
_cell_formula_units_Z   4
loop_
 _symmetry_equiv_pos_site_id
 _symmetry_equiv_pos_as_xyz
  1  'x, y, z'
loop_
 _atom_site_type_symbol
 _atom_site_label
 _atom_site_symmetry_multiplicity
 _atom_site_fract_x
 _atom_site_fract_y
 _atom_site_fract_z
 _atom_site_occupancy
  Na  Na0  1  0.00107988  0.53981246  0.16706719  1.0
  Na  Na1  1  0.63693024  0.46715624  0.71720382  1.0
  Na  Na2  1  0.86429863  0.84442927  0.32448834  1.0
  Na  Na3  1  0.68202858  0.91956267  0.10819964  1.0
  Cl  Cl4  1  0.03687569  0.29248664  0.39093889  1.0
  Cl  Cl5  1  0.37716187  0.19907474  0.88164309  1.0
  Cl  Cl6  1  0.07280126  0.32669100  0.57432515  1.0
  Cl  Cl7  1  0.45671188  0.41133231  0.60244090  1.0
