# generated using pymatgen
data_NaCl
_symmetry_space_group_name_H-M   'P 1'
_cell_length_a   4.84617277
_cell_length_b   4.39405224
_cell_length_c   13.32328103
_cell_angle_alpha   90.00000000
_cell_angle_beta   57.60091392
_cell_angle_gamma   90.00000000
_symmetry_Int_Tables_number   1
_chemical_formula_structural   NaCl
_chemical_formula_sum   'Na4 Cl4'
_cell_volume   239.54706116
_cell_formula_units_Z   4
loop_
 _symmetry_equiv_pos_site_id
 _symmetry_equiv_pos_as_xyz
  1  'x, y, z'
loop_
 _atom_site_type_symbol
 _atom_site_label
 _atom_site_symmetry_multiplicity
 _atom_site_fract_x
 _atom_site_fract_y
 _atom_site_fract_z
 _atom_site_occupancy
  Na  Na0  1  0.11708269  0.38900835  0.39680481  1.0
  Na  Na1  1  0.91881203  0.47338010  0.79917731  1.0
  Na  Na2  1  0.54982618  0.77056710  0.60275884  1.0
  Na  Na3  1  0.70787072  0.06665172  0.44238577  1.0
  Cl  Cl4  1  0.19371307  0.33767454  0.03194496  1.0
  Cl  Cl5  1  0.24861374  0.19753219  0.89214130  1.0
  Cl  Cl6  1  0.32934345  0.25931229  0.82354510  1.0
  Cl  Cl7  1  0.64924384  0.33262554  0.93793815  1.0
