# generated using pymatgen
data_NaCl
_symmetry_space_group_name_H-M   'P 1'
_cell_length_a   7.43982000
_cell_length_b   2.68591358
_cell_length_c   19.01732839
_cell_angle_alpha   90.00000000
_cell_angle_beta   90.00000000
_cell_angle_gamma   90.00000000
_symmetry_Int_Tables_number   1
_chemical_formula_structural   NaCl
_chemical_formula_sum   'Na4 Cl4'
_cell_volume   380.01782610
_cell_formula_units_Z   4
loop_
 _symmetry_equiv_pos_site_id
 _symmetry_equiv_pos_as_xyz
  1  'x, y, z'
loop_
 _atom_site_type_symbol
 _atom_site_label
 _atom_site_symmetry_multiplicity
 _atom_site_fract_x
 _atom_site_fract_y
 _atom_site_fract_z
 _atom_site_occupancy
  Na  Na0  1  0.01567324  0.00000000  0.16367482  1.0
  Na  Na1  1  0.65076201  0.00000000  0.33735693  1.0
  Na  Na2  1  0.92760752  0.00000000  0.66450914  1.0
  Na  Na3  1  0.53890640  0.00000000  0.01464688  1.0
  Cl  Cl4  1  0.00000000  0.00000000  0.50000000  1.0
  Cl  Cl5  1  0.50000000  0.00000000  0.50000000  1.0
  Cl  Cl6  1  0.25000000  0.00000000  0.89742302  1.0
  Cl  Cl7  1  0.75000000  0.00000000  0.74032294  1.0
