# generated using pymatgen
data_NaCl
_symmetry_space_group_name_H-M   'P 1'
_cell_length_a   2.89172647
_cell_length_b   7.33140461
_cell_length_c   15.70612068
_cell_angle_alpha   90.00000000
_cell_angle_beta   90.00000000
_cell_angle_gamma   90.00000000
_symmetry_Int_Tables_number   1
_chemical_formula_structural   NaCl
_chemical_formula_sum   'Na4 Cl4'
_cell_volume   332.97630430
_cell_formula_units_Z   4
loop_
 _symmetry_equiv_pos_site_id
 _symmetry_equiv_pos_as_xyz
  1  'x, y, z'
loop_
 _atom_site_type_symbol
 _atom_site_label
 _atom_site_symmetry_multiplicity
 _atom_site_fract_x
 _atom_site_fract_y
 _atom_site_fract_z
 _atom_site_occupancy
  Na  Na0  1  0.05091374  0.72215261  0.49425633  1.0
  Na  Na1  1  0.09699483  0.25980730  0.74873801  1.0
  Na  Na2  1  0.63133421  0.10349745  0.01629652  1.0
  Na  Na3  1  0.33137662  0.80331879  0.33726894  1.0
  Cl  Cl4  1  0.29621842  0.05941226  0.33422891  1.0
  Cl  Cl5  1  0.20155975  0.22308354  0.00994634  1.0
  Cl  Cl6  1  0.26077042  0.81742816  0.83777577  1.0
  Cl  Cl7  1  0.38452189  0.68385644  0.90708330  1.0
