# generated using pymatgen
data_NaCl
_symmetry_space_group_name_H-M   'P 1'
_cell_length_a   6.97047100
_cell_length_b   6.97047100
_cell_length_c   6.97047100
_cell_angle_alpha   90.00000000
_cell_angle_beta   90.00000000
_cell_angle_gamma   90.00000000
_symmetry_Int_Tables_number   1
_chemical_formula_structural   NaCl
_chemical_formula_sum   'Na4 Cl4'
_cell_volume   338.67752245
_cell_formula_units_Z   4
loop_
 _symmetry_equiv_pos_site_id
 _symmetry_equiv_pos_as_xyz
  1  'x, y, z'
loop_
 _atom_site_type_symbol
 _atom_site_label
 _atom_site_symmetry_multiplicity
 _atom_site_fract_x
 _atom_site_fract_y
 _atom_site_fract_z
 _atom_site_occupancy
  Na  Na0  1  0.15411956  0.15411956  0.15411956  1.0
  Na  Na1  1  0.67157412  0.17157412  0.32842588  1.0
  Na  Na2  1  0.96313483  0.53686517  0.46313483  1.0
  Na  Na3  1  0.57159272  0.42840728  0.92840728  1.0
  Cl  Cl4  1  0.29558592  0.29558592  0.29558592  1.0
  Cl  Cl5  1  0.29607551  0.79607551  0.70392449  1.0
  Cl  Cl6  1  0.13688986  0.36311014  0.63688986  1.0
  Cl  Cl7  1  0.91223461  0.08776539  0.58776539  1.0
