# generated using pymatgen
data_NaCl
_symmetry_space_group_name_H-M   'P 1'
_cell_length_a   2.65943531
_cell_length_b   10.02933808
_cell_length_c   15.38435702
_cell_angle_alpha   90.00000000
_cell_angle_beta   90.00000000
_cell_angle_gamma   90.00000000
_symmetry_Int_Tables_number   1
_chemical_formula_structural   NaCl
_chemical_formula_sum   'Na4 Cl4'
_cell_volume   410.33735228
_cell_formula_units_Z   4
loop_
 _symmetry_equiv_pos_site_id
 _symmetry_equiv_pos_as_xyz
  1  'x, y, z'
loop_
 _atom_site_type_symbol
 _atom_site_label
 _atom_site_symmetry_multiplicity
 _atom_site_fract_x
 _atom_site_fract_y
 _atom_site_fract_z
 _atom_site_occupancy
  Na  Na0  1  0.00000000  0.72462381  0.33976128  1.0
  Na  Na1  1  0.00000000  0.13814052  0.44447190  1.0
  Na  Na2  1  0.50000000  0.81061168  0.89913165  1.0
  Na  Na3  1  0.50000000  0.52357778  0.46080119  1.0
  Cl  Cl4  1  0.00000000  0.00000000  0.32235090  1.0
  Cl  Cl5  1  0.50000000  0.50000000  0.26273123  1.0
  Cl  Cl6  1  0.00000000  0.00000000  0.88632511  1.0
  Cl  Cl7  1  0.50000000  0.50000000  0.63590425  1.0
