# generated using pymatgen
data_NaCl
_symmetry_space_group_name_H-M   'P 1'
_cell_length_a   7.26614314
_cell_length_b   2.02782595
_cell_length_c   19.18476193
_cell_angle_alpha   90.00000000
_cell_angle_beta   90.00000000
_cell_angle_gamma   90.00000000
_symmetry_Int_Tables_number   1
_chemical_formula_structural   NaCl
_chemical_formula_sum   'Na4 Cl4'
_cell_volume   282.67736848
_cell_formula_units_Z   4
loop_
 _symmetry_equiv_pos_site_id
 _symmetry_equiv_pos_as_xyz
  1  'x, y, z'
loop_
 _atom_site_type_symbol
 _atom_site_label
 _atom_site_symmetry_multiplicity
 _atom_site_fract_x
 _atom_site_fract_y
 _atom_site_fract_z
 _atom_site_occupancy
  Na  Na0  1  0.09845844  0.48512081  0.20794513  1.0
  Na  Na1  1  0.15094094  0.47153159  0.34624827  1.0
  Na  Na2  1  0.61866011  0.67036059  0.08926502  1.0
  Na  Na3  1  0.33791822  0.56481137  0.86938108  1.0
  Cl  Cl4  1  0.00000000  0.00000000  0.31460999  1.0
  Cl  Cl5  1  0.50000000  0.00000000  0.47305064  1.0
  Cl  Cl6  1  0.00000000  0.00000000  0.92890999  1.0
  Cl  Cl7  1  0.50000000  0.00000000  0.70257697  1.0
