# generated using pymatgen
data_NaCl
_symmetry_space_group_name_H-M   'P 1'
_cell_length_a   5.08182257
_cell_length_b   2.01868624
_cell_length_c   20.26219244
_cell_angle_alpha   90.00000000
_cell_angle_beta   90.00000000
_cell_angle_gamma   90.00000000
_symmetry_Int_Tables_number   1
_chemical_formula_structural   NaCl
_chemical_formula_sum   'Na4 Cl4'
_cell_volume   207.86183468
_cell_formula_units_Z   4
loop_
 _symmetry_equiv_pos_site_id
 _symmetry_equiv_pos_as_xyz
  1  'x, y, z'
loop_
 _atom_site_type_symbol
 _atom_site_label
 _atom_site_symmetry_multiplicity
 _atom_site_fract_x
 _atom_site_fract_y
 _atom_site_fract_z
 _atom_site_occupancy
  Na  Na0  1  0.01801142  0.45254735  0.43412165  1.0
  Na  Na1  1  0.16393645  0.53112399  0.25168169  1.0
  Na  Na2  1  0.48022181  0.88464163  0.73279747  1.0
  Na  Na3  1  0.63382208  0.02846772  0.98115058  1.0
  Cl  Cl4  1  0.00000000  0.00000000  0.04391055  1.0
  Cl  Cl5  1  0.50000000  0.50000000  0.46149339  1.0
  Cl  Cl6  1  0.00000000  0.50000000  0.89222770  1.0
  Cl  Cl7  1  0.50000000  0.00000000  0.44484480  1.0
