# generated using pymatgen
data_NaCl
_symmetry_space_group_name_H-M   'P 1'
_cell_length_a   5.85761510
_cell_length_b   4.20791205
_cell_length_c   13.88287676
_cell_angle_alpha   90.00000000
_cell_angle_beta   90.00000000
_cell_angle_gamma   90.00000000
_symmetry_Int_Tables_number   1
_chemical_formula_structural   NaCl
_chemical_formula_sum   'Na4 Cl4'
_cell_volume   342.18971612
_cell_formula_units_Z   4
loop_
 _symmetry_equiv_pos_site_id
 _symmetry_equiv_pos_as_xyz
  1  'x, y, z'
loop_
 _atom_site_type_symbol
 _atom_site_label
 _atom_site_symmetry_multiplicity
 _atom_site_fract_x
 _atom_site_fract_y
 _atom_site_fract_z
 _atom_site_occupancy
  Na  Na0  1  0.00163084  0.32430917  0.46122002  1.0
  Na  Na1  1  0.60297834  0.34473198  0.79640996  1.0
  Na  Na2  1  0.93522638  0.74184223  0.35305208  1.0
  Na  Na3  1  0.66917702  0.97220236  0.04225364  1.0
  Cl  Cl4  1  0.19909789  0.14377655  0.12880818  1.0
  Cl  Cl5  1  0.14993553  0.86268964  0.90681716  1.0
  Cl  Cl6  1  0.06575951  0.37787302  0.64514853  1.0
  Cl  Cl7  1  0.58404878  0.88521977  0.57548651  1.0
