# generated using pymatgen
data_NaCl
_symmetry_space_group_name_H-M   'P 1'
_cell_length_a   2.88576888
_cell_length_b   5.67607849
_cell_length_c   20.72416279
_cell_angle_alpha   90.00000000
_cell_angle_beta   73.87797049
_cell_angle_gamma   90.00000000
_symmetry_Int_Tables_number   1
_chemical_formula_structural   NaCl
_chemical_formula_sum   'Na4 Cl4'
_cell_volume   326.10861613
_cell_formula_units_Z   4
loop_
 _symmetry_equiv_pos_site_id
 _symmetry_equiv_pos_as_xyz
  1  'x, y, z'
loop_
 _atom_site_type_symbol
 _atom_site_label
 _atom_site_symmetry_multiplicity
 _atom_site_fract_x
 _atom_site_fract_y
 _atom_site_fract_z
 _atom_site_occupancy
  Na  Na0  1  0.06345933  0.31812214  0.26786329  1.0
  Na  Na1  1  0.03979700  0.42782468  0.71499080  1.0
  Na  Na2  1  0.63969896  0.81091042  0.28903876  1.0
  Na  Na3  1  0.13420311  0.01297680  0.07416307  1.0
  Cl  Cl4  1  0.00000000  0.11050422  0.00000000  1.0
  Cl  Cl5  1  0.50000000  0.36699548  0.00000000  1.0
  Cl  Cl6  1  0.00000000  0.98333741  0.50000000  1.0
  Cl  Cl7  1  0.50000000  0.97666738  0.50000000  1.0
