# generated using pymatgen
data_NaCl
_symmetry_space_group_name_H-M   'P 1'
_cell_length_a   5.76209557
_cell_length_b   2.47950350
_cell_length_c   18.96994765
_cell_angle_alpha   90.00000000
_cell_angle_beta   90.00000000
_cell_angle_gamma   90.00000000
_symmetry_Int_Tables_number   1
_chemical_formula_structural   NaCl
_chemical_formula_sum   'Na4 Cl4'
_cell_volume   271.02622451
_cell_formula_units_Z   4
loop_
 _symmetry_equiv_pos_site_id
 _symmetry_equiv_pos_as_xyz
  1  'x, y, z'
loop_
 _atom_site_type_symbol
 _atom_site_label
 _atom_site_symmetry_multiplicity
 _atom_site_fract_x
 _atom_site_fract_y
 _atom_site_fract_z
 _atom_site_occupancy
  Na  Na0  1  0.12503803  0.49083654  0.00067337  1.0
  Na  Na1  1  0.61494000  0.56481501  0.41268744  1.0
  Na  Na2  1  0.54486834  0.63567865  0.63876381  1.0
  Na  Na3  1  0.96515487  0.57429991  0.90648704  1.0
  Cl  Cl4  1  0.10321424  0.08759279  0.26190508  1.0
  Cl  Cl5  1  0.17539140  0.15002165  0.94579883  1.0
  Cl  Cl6  1  0.35117256  0.19441371  0.43388642  1.0
  Cl  Cl7  1  0.84694645  0.14506642  0.34388695  1.0
