# generated using pymatgen
data_NaCl
_symmetry_space_group_name_H-M   'P 1'
_cell_length_a   5.46263842
_cell_length_b   3.45229944
_cell_length_c   18.59972309
_cell_angle_alpha   90.00000000
_cell_angle_beta   90.00000000
_cell_angle_gamma   90.00000000
_symmetry_Int_Tables_number   1
_chemical_formula_structural   NaCl
_chemical_formula_sum   'Na4 Cl4'
_cell_volume   350.76592003
_cell_formula_units_Z   4
loop_
 _symmetry_equiv_pos_site_id
 _symmetry_equiv_pos_as_xyz
  1  'x, y, z'
loop_
 _atom_site_type_symbol
 _atom_site_label
 _atom_site_symmetry_multiplicity
 _atom_site_fract_x
 _atom_site_fract_y
 _atom_site_fract_z
 _atom_site_occupancy
  Na  Na0  1  0.25000000  0.65184035  0.33401790  1.0
  Na  Na1  1  0.75000000  0.73574205  0.26140492  1.0
  Na  Na2  1  0.75000000  0.69435404  0.68889994  1.0
  Na  Na3  1  0.25000000  0.75342171  0.42616367  1.0
  Cl  Cl4  1  0.25000000  0.56242588  0.50630792  1.0
  Cl  Cl5  1  0.75000000  0.00072201  0.89424361  1.0
  Cl  Cl6  1  0.75000000  0.21534761  0.37266150  1.0
  Cl  Cl7  1  0.25000000  0.28643107  0.82786373  1.0
