# generated using pymatgen
data_NaCl
_symmetry_space_group_name_H-M   'P 1'
_cell_length_a   4.95609692
_cell_length_b   3.75161106
_cell_length_c   20.77891555
_cell_angle_alpha   90.00000000
_cell_angle_beta   90.00000000
_cell_angle_gamma   90.00000000
_symmetry_Int_Tables_number   1
_chemical_formula_structural   NaCl
_chemical_formula_sum   'Na4 Cl4'
_cell_volume   386.34960829
_cell_formula_units_Z   4
loop_
 _symmetry_equiv_pos_site_id
 _symmetry_equiv_pos_as_xyz
  1  'x, y, z'
loop_
 _atom_site_type_symbol
 _atom_site_label
 _atom_site_symmetry_multiplicity
 _atom_site_fract_x
 _atom_site_fract_y
 _atom_site_fract_z
 _atom_site_occupancy
  Na  Na0  1  0.09085840  0.51091810  0.20038063  1.0
  Na  Na1  1  0.09016555  0.37266332  0.70142172  1.0
  Na  Na2  1  0.60283706  0.27174764  0.33779742  1.0
  Na  Na3  1  0.42975195  0.13328601  0.49971917  1.0
  Cl  Cl4  1  0.21850958  0.06461378  0.26846720  1.0
  Cl  Cl5  1  0.69664977  0.11953704  0.87250412  1.0
  Cl  Cl6  1  0.30657368  0.61686754  0.86118462  1.0
  Cl  Cl7  1  0.11383648  0.81711685  0.87869603  1.0
