# generated using pymatgen
data_NaCl
_symmetry_space_group_name_H-M   'P 1'
_cell_length_a   5.86954315
_cell_length_b   7.19066855
_cell_length_c   7.65437738
_cell_angle_alpha   90.00000000
_cell_angle_beta   62.07748933
_cell_angle_gamma   90.00000000
_symmetry_Int_Tables_number   1
_chemical_formula_structural   NaCl
_chemical_formula_sum   'Na4 Cl4'
_cell_volume   285.45007570
_cell_formula_units_Z   4
loop_
 _symmetry_equiv_pos_site_id
 _symmetry_equiv_pos_as_xyz
  1  'x, y, z'
loop_
 _atom_site_type_symbol
 _atom_site_label
 _atom_site_symmetry_multiplicity
 _atom_site_fract_x
 _atom_site_fract_y
 _atom_site_fract_z
 _atom_site_occupancy
  Na  Na0  1  0.14731854  0.50008634  0.18681587  1.0
  Na  Na1  1  0.11703537  0.94545523  0.83763117  1.0
  Na  Na2  1  0.93933861  0.78417934  0.84271411  1.0
  Na  Na3  1  0.56423754  0.90528017  0.90036578  1.0
  Cl  Cl4  1  0.00000000  0.00000000  0.00000000  1.0
  Cl  Cl5  1  0.00000000  0.50000000  0.00000000  1.0
  Cl  Cl6  1  0.00000000  0.00000000  0.50000000  1.0
  Cl  Cl7  1  0.00000000  0.50000000  0.50000000  1.0
