# generated using pymatgen
data_NaCl
_symmetry_space_group_name_H-M   'P 1'
_cell_length_a   6.13362793
_cell_length_b   2.66802990
_cell_length_c   19.91827295
_cell_angle_alpha   90.00000000
_cell_angle_beta   61.55258016
_cell_angle_gamma   90.00000000
_symmetry_Int_Tables_number   1
_chemical_formula_structural   NaCl
_chemical_formula_sum   'Na4 Cl4'
_cell_volume   286.59886314
_cell_formula_units_Z   4
loop_
 _symmetry_equiv_pos_site_id
 _symmetry_equiv_pos_as_xyz
  1  'x, y, z'
loop_
 _atom_site_type_symbol
 _atom_site_label
 _atom_site_symmetry_multiplicity
 _atom_site_fract_x
 _atom_site_fract_y
 _atom_site_fract_z
 _atom_site_occupancy
  Na  Na0  1  0.11148699  0.55628440  0.31354597  1.0
  Na  Na1  1  0.94910505  0.25977522  0.72232524  1.0
  Na  Na2  1  0.50048583  0.74706839  0.21571791  1.0
  Na  Na3  1  0.68208827  0.97787781  0.40130897  1.0
  Cl  Cl4  1  0.13728845  0.24315627  0.43285777  1.0
  Cl  Cl5  1  0.20812134  0.17528299  0.84518903  1.0
  Cl  Cl6  1  0.03003456  0.37911195  0.98214707  1.0
  Cl  Cl7  1  0.68532250  0.21726517  0.04207982  1.0
