# generated using pymatgen
data_NaCl
_symmetry_space_group_name_H-M   'P 1'
_cell_length_a   6.38468331
_cell_length_b   3.03755253
_cell_length_c   16.98746871
_cell_angle_alpha   90.00000000
_cell_angle_beta   90.00000000
_cell_angle_gamma   90.00000000
_symmetry_Int_Tables_number   1
_chemical_formula_structural   NaCl
_chemical_formula_sum   'Na4 Cl4'
_cell_volume   329.45175654
_cell_formula_units_Z   4
loop_
 _symmetry_equiv_pos_site_id
 _symmetry_equiv_pos_as_xyz
  1  'x, y, z'
loop_
 _atom_site_type_symbol
 _atom_site_label
 _atom_site_symmetry_multiplicity
 _atom_site_fract_x
 _atom_site_fract_y
 _atom_site_fract_z
 _atom_site_occupancy
  Na  Na0  1  0.03264543  0.42850634  0.00166812  1.0
  Na  Na1  1  0.16979603  0.62319581  0.26079552  1.0
  Na  Na2  1  0.32823522  0.70861311  0.90276691  1.0
  Na  Na3  1  0.54012550  0.93293503  0.13957714  1.0
  Cl  Cl4  1  0.00000000  0.00000000  0.39870793  1.0
  Cl  Cl5  1  0.50000000  0.50000000  0.59361033  1.0
  Cl  Cl6  1  0.00000000  0.00000000  0.93865026  1.0
  Cl  Cl7  1  0.50000000  0.50000000  0.68358142  1.0
