# generated using pymatgen
data_NaCl
_symmetry_space_group_name_H-M   'P 1'
_cell_length_a   6.66061850
_cell_length_b   5.47571489
_cell_length_c   13.82792311
_cell_angle_alpha   90.00000000
_cell_angle_beta   40.09619009
_cell_angle_gamma   90.00000000
_symmetry_Int_Tables_number   1
_chemical_formula_structural   NaCl
_chemical_formula_sum   'Na4 Cl4'
_cell_volume   324.82337710
_cell_formula_units_Z   4
loop_
 _symmetry_equiv_pos_site_id
 _symmetry_equiv_pos_as_xyz
  1  'x, y, z'
loop_
 _atom_site_type_symbol
 _atom_site_label
 _atom_site_symmetry_multiplicity
 _atom_site_fract_x
 _atom_site_fract_y
 _atom_site_fract_z
 _atom_site_occupancy
  Na  Na0  1  0.00000000  0.95933248  0.00000000  1.0
  Na  Na1  1  0.50000000  0.18295026  0.00000000  1.0
  Na  Na2  1  0.02842184  0.18923449  0.10765156  1.0
  Na  Na3  1  0.88331231  0.59377334  0.13837871  1.0
  Cl  Cl4  1  0.00000000  0.02677372  0.50000000  1.0
  Cl  Cl5  1  0.50000000  0.76494962  0.00000000  1.0
  Cl  Cl6  1  0.84503667  0.77542160  0.96095173  1.0
  Cl  Cl7  1  0.87085192  0.99507515  0.71088938  1.0
