# generated using pymatgen
data_NaCl
_symmetry_space_group_name_H-M   'P 1'
_cell_length_a   6.68125860
_cell_length_b   3.58535588
_cell_length_c   15.59927899
_cell_angle_alpha   90.00000000
_cell_angle_beta   90.00000000
_cell_angle_gamma   90.00000000
_symmetry_Int_Tables_number   1
_chemical_formula_structural   NaCl
_chemical_formula_sum   'Na4 Cl4'
_cell_volume   373.67588942
_cell_formula_units_Z   4
loop_
 _symmetry_equiv_pos_site_id
 _symmetry_equiv_pos_as_xyz
  1  'x, y, z'
loop_
 _atom_site_type_symbol
 _atom_site_label
 _atom_site_symmetry_multiplicity
 _atom_site_fract_x
 _atom_site_fract_y
 _atom_site_fract_z
 _atom_site_occupancy
  Na  Na0  1  0.19191604  0.49440066  0.48053328  1.0
  Na  Na1  1  0.65262314  0.68941854  0.84371837  1.0
  Na  Na2  1  0.25106573  0.79552344  0.60174457  1.0
  Na  Na3  1  0.90240023  0.57608464  0.92083612  1.0
  Cl  Cl4  1  0.16739332  0.18559037  0.79146250  1.0
  Cl  Cl5  1  0.29070422  0.07176068  0.92573402  1.0
  Cl  Cl6  1  0.36693191  0.23387139  0.20740408  1.0
  Cl  Cl7  1  0.77053237  0.29896700  0.35064610  1.0
