# generated using pymatgen
data_NaCl
_symmetry_space_group_name_H-M   'P 1'
_cell_length_a   6.85781184
_cell_length_b   2.47488148
_cell_length_c   20.94339435
_cell_angle_alpha   90.00000000
_cell_angle_beta   66.65432369
_cell_angle_gamma   90.00000000
_symmetry_Int_Tables_number   1
_chemical_formula_structural   NaCl
_chemical_formula_sum   'Na4 Cl4'
_cell_volume   326.35598290
_cell_formula_units_Z   4
loop_
 _symmetry_equiv_pos_site_id
 _symmetry_equiv_pos_as_xyz
  1  'x, y, z'
loop_
 _atom_site_type_symbol
 _atom_site_label
 _atom_site_symmetry_multiplicity
 _atom_site_fract_x
 _atom_site_fract_y
 _atom_site_fract_z
 _atom_site_occupancy
  Na  Na0  1  0.12458048  0.43480420  0.25383330  1.0
  Na  Na1  1  0.96383158  0.45694115  0.36160196  1.0
  Na  Na2  1  0.51561873  0.86459938  0.18691814  1.0
  Na  Na3  1  0.70125750  0.00461928  0.83174976  1.0
  Cl  Cl4  1  0.49315924  0.13948711  0.26357741  1.0
  Cl  Cl5  1  0.12723992  0.14124369  0.93529178  1.0
  Cl  Cl6  1  0.48259978  0.11657586  0.47091812  1.0
  Cl  Cl7  1  0.89402325  0.21490481  0.50627704  1.0
