# generated using pymatgen
data_NaCl
_symmetry_space_group_name_H-M   'P 1'
_cell_length_a   4.04582592
_cell_length_b   4.04582592
_cell_length_c   21.00627271
_cell_angle_alpha   90.00000000
_cell_angle_beta   90.00000000
_cell_angle_gamma   90.00000000
_symmetry_Int_Tables_number   1
_chemical_formula_structural   NaCl
_chemical_formula_sum   'Na4 Cl4'
_cell_volume   343.84553103
_cell_formula_units_Z   4
loop_
 _symmetry_equiv_pos_site_id
 _symmetry_equiv_pos_as_xyz
  1  'x, y, z'
loop_
 _atom_site_type_symbol
 _atom_site_label
 _atom_site_symmetry_multiplicity
 _atom_site_fract_x
 _atom_site_fract_y
 _atom_site_fract_z
 _atom_site_occupancy
  Na  Na0  1  0.00000000  0.50000000  0.09720509  1.0
  Na  Na1  1  0.50000000  0.00000000  0.77945217  1.0
  Na  Na2  1  0.50000000  0.00000000  0.24736349  1.0
  Na  Na3  1  0.00000000  0.50000000  0.44823532  1.0
  Cl  Cl4  1  0.00000000  0.50000000  0.25663120  1.0
  Cl  Cl5  1  0.50000000  0.00000000  0.54447276  1.0
  Cl  Cl6  1  0.50000000  0.00000000  0.60898888  1.0
  Cl  Cl7  1  0.00000000  0.50000000  0.89460695  1.0
