# generated using pymatgen
data_NaCl
_symmetry_space_group_name_H-M   'P 1'
_cell_length_a   3.01218413
_cell_length_b   5.71729919
_cell_length_c   17.64670374
_cell_angle_alpha   90.00000000
_cell_angle_beta   90.00000000
_cell_angle_gamma   90.00000000
_symmetry_Int_Tables_number   1
_chemical_formula_structural   NaCl
_chemical_formula_sum   'Na4 Cl4'
_cell_volume   303.90372997
_cell_formula_units_Z   4
loop_
 _symmetry_equiv_pos_site_id
 _symmetry_equiv_pos_as_xyz
  1  'x, y, z'
loop_
 _atom_site_type_symbol
 _atom_site_label
 _atom_site_symmetry_multiplicity
 _atom_site_fract_x
 _atom_site_fract_y
 _atom_site_fract_z
 _atom_site_occupancy
  Na  Na0  1  0.25000000  0.50892611  0.09819882  1.0
  Na  Na1  1  0.75000000  0.54766881  0.23951536  1.0
  Na  Na2  1  0.25000000  0.79117312  0.62513722  1.0
  Na  Na3  1  0.75000000  0.86923192  0.43050043  1.0
  Cl  Cl4  1  0.25000000  0.09967010  0.39092264  1.0
  Cl  Cl5  1  0.75000000  0.20305905  0.55790167  1.0
  Cl  Cl6  1  0.25000000  0.26747301  0.42506831  1.0
  Cl  Cl7  1  0.75000000  0.49883004  0.77582929  1.0
