# generated using pymatgen
data_NaCl
_symmetry_space_group_name_H-M   'P 1'
_cell_length_a   7.21639892
_cell_length_b   2.86909526
_cell_length_c   10.00684566
_cell_angle_alpha   90.00000000
_cell_angle_beta   90.00000000
_cell_angle_gamma   90.00000000
_symmetry_Int_Tables_number   1
_chemical_formula_structural   NaCl
_chemical_formula_sum   'Na4 Cl4'
_cell_volume   207.18709557
_cell_formula_units_Z   4
loop_
 _symmetry_equiv_pos_site_id
 _symmetry_equiv_pos_as_xyz
  1  'x, y, z'
loop_
 _atom_site_type_symbol
 _atom_site_label
 _atom_site_symmetry_multiplicity
 _atom_site_fract_x
 _atom_site_fract_y
 _atom_site_fract_z
 _atom_site_occupancy
  Na  Na0  1  0.05491144  0.37707051  0.52749325  1.0
  Na  Na1  1  0.14370570  0.41161414  0.94551724  1.0
  Na  Na2  1  0.51832326  0.16228258  0.09802601  1.0
  Na  Na3  1  0.35740461  0.97830189  0.48447615  1.0
  Cl  Cl4  1  0.17676944  0.27403412  0.08227113  1.0
  Cl  Cl5  1  0.77278089  0.10905742  0.88154221  1.0
  Cl  Cl6  1  0.21562870  0.72230709  0.88527443  1.0
  Cl  Cl7  1  0.29192801  0.71059292  0.98862242  1.0
