# generated using pymatgen
data_NaCl
_symmetry_space_group_name_H-M   'P 1'
_cell_length_a   3.80175027
_cell_length_b   3.80175027
_cell_length_c   15.80087838
_cell_angle_alpha   90.00000000
_cell_angle_beta   90.00000000
_cell_angle_gamma   90.00000000
_symmetry_Int_Tables_number   1
_chemical_formula_structural   NaCl
_chemical_formula_sum   'Na4 Cl4'
_cell_volume   228.37491632
_cell_formula_units_Z   4
loop_
 _symmetry_equiv_pos_site_id
 _symmetry_equiv_pos_as_xyz
  1  'x, y, z'
loop_
 _atom_site_type_symbol
 _atom_site_label
 _atom_site_symmetry_multiplicity
 _atom_site_fract_x
 _atom_site_fract_y
 _atom_site_fract_z
 _atom_site_occupancy
  Na  Na0  1  0.08021180  0.58021180  0.18482332  1.0
  Na  Na1  1  0.17986725  0.67986725  0.32118654  1.0
  Na  Na2  1  0.25701494  0.24298506  0.01899123  1.0
  Na  Na3  1  0.56201356  0.93798644  0.92126266  1.0
  Cl  Cl4  1  0.00000000  0.00000000  0.50639650  1.0
  Cl  Cl5  1  0.50000000  0.50000000  0.38493568  1.0
  Cl  Cl6  1  0.00000000  0.00000000  0.88398717  1.0
  Cl  Cl7  1  0.50000000  0.50000000  0.19724770  1.0
