# generated using pymatgen
data_NaCl
_symmetry_space_group_name_H-M   'P 1'
_cell_length_a   5.72798039
_cell_length_b   3.55490429
_cell_length_c   15.62351207
_cell_angle_alpha   90.00000000
_cell_angle_beta   50.32599692
_cell_angle_gamma   90.00000000
_symmetry_Int_Tables_number   1
_chemical_formula_structural   NaCl
_chemical_formula_sum   'Na4 Cl4'
_cell_volume   244.86321893
_cell_formula_units_Z   4
loop_
 _symmetry_equiv_pos_site_id
 _symmetry_equiv_pos_as_xyz
  1  'x, y, z'
loop_
 _atom_site_type_symbol
 _atom_site_label
 _atom_site_symmetry_multiplicity
 _atom_site_fract_x
 _atom_site_fract_y
 _atom_site_fract_z
 _atom_site_occupancy
  Na  Na0  1  0.19626015  0.44981678  0.24574457  1.0
  Na  Na1  1  0.90845056  0.66583251  0.86556836  1.0
  Na  Na2  1  0.71234870  0.69042731  0.00220879  1.0
  Na  Na3  1  0.63987718  0.91389677  0.41424830  1.0
  Cl  Cl4  1  0.23331784  0.27311833  0.87301177  1.0
  Cl  Cl5  1  0.19055871  0.04977395  0.00817494  1.0
  Cl  Cl6  1  0.37092207  0.32809595  0.66749210  1.0
  Cl  Cl7  1  0.63540541  0.18328695  0.91638309  1.0
