# generated using pymatgen
data_NaCl
_symmetry_space_group_name_H-M   'P 1'
_cell_length_a   6.64444884
_cell_length_b   2.46663128
_cell_length_c   18.95696202
_cell_angle_alpha   90.00000000
_cell_angle_beta   90.00000000
_cell_angle_gamma   90.00000000
_symmetry_Int_Tables_number   1
_chemical_formula_structural   NaCl
_chemical_formula_sum   'Na4 Cl4'
_cell_volume   310.69333470
_cell_formula_units_Z   4
loop_
 _symmetry_equiv_pos_site_id
 _symmetry_equiv_pos_as_xyz
  1  'x, y, z'
loop_
 _atom_site_type_symbol
 _atom_site_label
 _atom_site_symmetry_multiplicity
 _atom_site_fract_x
 _atom_site_fract_y
 _atom_site_fract_z
 _atom_site_occupancy
  Na  Na0  1  0.00000000  0.60052047  0.39535363  1.0
  Na  Na1  1  0.00000000  0.66226604  0.27929196  1.0
  Na  Na2  1  0.50000000  0.80212954  0.14146589  1.0
  Na  Na3  1  0.50000000  0.84731532  0.91205087  1.0
  Cl  Cl4  1  0.93845927  0.00000000  0.32585812  1.0
  Cl  Cl5  1  0.98153420  0.00000000  0.78505821  1.0
  Cl  Cl6  1  0.35982192  0.50000000  0.87814626  1.0
  Cl  Cl7  1  0.25983887  0.50000000  0.53832491  1.0
