# generated using pymatgen
data_NaCl
_symmetry_space_group_name_H-M   'P 1'
_cell_length_a   2.02888315
_cell_length_b   6.53615991
_cell_length_c   16.87341026
_cell_angle_alpha   90.00000000
_cell_angle_beta   60.66413164
_cell_angle_gamma   90.00000000
_symmetry_Int_Tables_number   1
_chemical_formula_structural   NaCl
_chemical_formula_sum   'Na4 Cl4'
_cell_volume   195.06568273
_cell_formula_units_Z   4
loop_
 _symmetry_equiv_pos_site_id
 _symmetry_equiv_pos_as_xyz
  1  'x, y, z'
loop_
 _atom_site_type_symbol
 _atom_site_label
 _atom_site_symmetry_multiplicity
 _atom_site_fract_x
 _atom_site_fract_y
 _atom_site_fract_z
 _atom_site_occupancy
  Na  Na0  1  0.32613407  0.69116431  0.44778937  1.0
  Na  Na1  1  0.21836711  0.81800772  0.70459398  1.0
  Na  Na2  1  0.99901483  0.64783751  0.58695158  1.0
  Na  Na3  1  0.16168927  0.04212308  0.77442605  1.0
  Cl  Cl4  1  0.34643512  0.28831427  0.31303486  1.0
  Cl  Cl5  1  0.81665024  0.40437953  0.65335945  1.0
  Cl  Cl6  1  0.33160808  0.11154675  0.04471089  1.0
  Cl  Cl7  1  0.28796580  0.10972770  0.65359688  1.0
