# generated using pymatgen
data_NaCl
_symmetry_space_group_name_H-M   'P 1'
_cell_length_a   2.49823222
_cell_length_b   6.50605614
_cell_length_c   16.32266405
_cell_angle_alpha   90.00000000
_cell_angle_beta   54.50487740
_cell_angle_gamma   90.00000000
_symmetry_Int_Tables_number   1
_chemical_formula_structural   NaCl
_chemical_formula_sum   'Na4 Cl4'
_cell_volume   216.00015116
_cell_formula_units_Z   4
loop_
 _symmetry_equiv_pos_site_id
 _symmetry_equiv_pos_as_xyz
  1  'x, y, z'
loop_
 _atom_site_type_symbol
 _atom_site_label
 _atom_site_symmetry_multiplicity
 _atom_site_fract_x
 _atom_site_fract_y
 _atom_site_fract_z
 _atom_site_occupancy
  Na  Na0  1  0.11701743  0.65873158  0.32809683  1.0
  Na  Na1  1  0.00000805  0.84020784  0.61056664  1.0
  Na  Na2  1  0.95440078  0.34674105  0.31234691  1.0
  Na  Na3  1  0.82570701  0.00893482  0.03315762  1.0
  Cl  Cl4  1  0.27625474  0.00534268  0.20400374  1.0
  Cl  Cl5  1  0.85072100  0.38935635  0.59072034  1.0
  Cl  Cl6  1  0.75616428  0.89415650  0.91596442  1.0
  Cl  Cl7  1  0.74288112  0.88193764  0.28531393  1.0
