# generated using pymatgen
data_NaCl
_symmetry_space_group_name_H-M   'P 1'
_cell_length_a   5.25761866
_cell_length_b   5.60577890
_cell_length_c   13.77669698
_cell_angle_alpha   90.00000000
_cell_angle_beta   90.00000000
_cell_angle_gamma   90.00000000
_symmetry_Int_Tables_number   1
_chemical_formula_structural   NaCl
_chemical_formula_sum   'Na4 Cl4'
_cell_volume   406.04124791
_cell_formula_units_Z   4
loop_
 _symmetry_equiv_pos_site_id
 _symmetry_equiv_pos_as_xyz
  1  'x, y, z'
loop_
 _atom_site_type_symbol
 _atom_site_label
 _atom_site_symmetry_multiplicity
 _atom_site_fract_x
 _atom_site_fract_y
 _atom_site_fract_z
 _atom_site_occupancy
  Na  Na0  1  0.11875095  0.40207242  0.25328305  1.0
  Na  Na1  1  0.37110710  0.67910994  0.78807171  1.0
  Na  Na2  1  0.74370130  0.83607346  0.06871159  1.0
  Na  Na3  1  0.49947199  0.58224204  0.30562836  1.0
  Cl  Cl4  1  0.00009431  0.12191495  0.43698556  1.0
  Cl  Cl5  1  0.63026760  0.02459870  0.81314556  1.0
  Cl  Cl6  1  0.28225495  0.09954229  0.95227552  1.0
  Cl  Cl7  1  0.46488980  0.92010459  0.78892534  1.0
