# generated using pymatgen
data_NaCl
_symmetry_space_group_name_H-M   'P 1'
_cell_length_a   5.88730610
_cell_length_b   3.04956439
_cell_length_c   20.78925827
_cell_angle_alpha   90.00000000
_cell_angle_beta   90.00000000
_cell_angle_gamma   90.00000000
_symmetry_Int_Tables_number   1
_chemical_formula_structural   NaCl
_chemical_formula_sum   'Na4 Cl4'
_cell_volume   373.24450194
_cell_formula_units_Z   4
loop_
 _symmetry_equiv_pos_site_id
 _symmetry_equiv_pos_as_xyz
  1  'x, y, z'
loop_
 _atom_site_type_symbol
 _atom_site_label
 _atom_site_symmetry_multiplicity
 _atom_site_fract_x
 _atom_site_fract_y
 _atom_site_fract_z
 _atom_site_occupancy
  Na  Na0  1  0.04715776  0.25000000  0.14021268  1.0
  Na  Na1  1  0.64550417  0.75000000  0.66737336  1.0
  Na  Na2  1  0.85311308  0.75000000  0.88825537  1.0
  Na  Na3  1  0.68965334  0.25000000  0.61305341  1.0
  Cl  Cl4  1  0.00129002  0.25000000  0.35586881  1.0
  Cl  Cl5  1  0.42496181  0.75000000  0.96342979  1.0
  Cl  Cl6  1  0.04972821  0.75000000  0.08152635  1.0
  Cl  Cl7  1  0.45384865  0.25000000  0.16157881  1.0
