# generated using pymatgen
data_NaCl
_symmetry_space_group_name_H-M   'P 1'
_cell_length_a   4.37404803
_cell_length_b   2.83579878
_cell_length_c   19.09901249
_cell_angle_alpha   90.00000000
_cell_angle_beta   90.00000000
_cell_angle_gamma   90.00000000
_symmetry_Int_Tables_number   1
_chemical_formula_structural   NaCl
_chemical_formula_sum   'Na4 Cl4'
_cell_volume   236.90262429
_cell_formula_units_Z   4
loop_
 _symmetry_equiv_pos_site_id
 _symmetry_equiv_pos_as_xyz
  1  'x, y, z'
loop_
 _atom_site_type_symbol
 _atom_site_label
 _atom_site_symmetry_multiplicity
 _atom_site_fract_x
 _atom_site_fract_y
 _atom_site_fract_z
 _atom_site_occupancy
  Na  Na0  1  0.05076285  0.33452859  0.24513667  1.0
  Na  Na1  1  0.45370696  0.81772237  0.74985446  1.0
  Na  Na2  1  0.56654243  0.25743007  0.10058795  1.0
  Na  Na3  1  0.25647417  0.00956220  0.48064259  1.0
  Cl  Cl4  1  0.03066377  0.00116534  0.41152780  1.0
  Cl  Cl5  1  0.76253475  0.14592745  0.71075417  1.0
  Cl  Cl6  1  0.36937499  0.77506945  0.87243446  1.0
  Cl  Cl7  1  0.39868436  0.34018196  0.74693531  1.0
