# generated using pymatgen
data_NaCl
_symmetry_space_group_name_H-M   'P 1'
_cell_length_a   4.62563707
_cell_length_b   4.56635962
_cell_length_c   17.15656274
_cell_angle_alpha   90.00000000
_cell_angle_beta   53.80393884
_cell_angle_gamma   90.00000000
_symmetry_Int_Tables_number   1
_chemical_formula_structural   NaCl
_chemical_formula_sum   'Na4 Cl4'
_cell_volume   292.44619424
_cell_formula_units_Z   4
loop_
 _symmetry_equiv_pos_site_id
 _symmetry_equiv_pos_as_xyz
  1  'x, y, z'
loop_
 _atom_site_type_symbol
 _atom_site_label
 _atom_site_symmetry_multiplicity
 _atom_site_fract_x
 _atom_site_fract_y
 _atom_site_fract_z
 _atom_site_occupancy
  Na  Na0  1  0.20289146  0.50365769  0.09649645  1.0
  Na  Na1  1  0.82483361  0.92569125  0.20906588  1.0
  Na  Na2  1  0.63099902  0.80213862  0.04346915  1.0
  Na  Na3  1  0.65461343  0.88235192  0.94089538  1.0
  Cl  Cl4  1  0.06302574  0.07431087  0.31221292  1.0
  Cl  Cl5  1  0.30793566  0.19464953  0.44375567  1.0
  Cl  Cl6  1  0.33662347  0.31863284  0.85065925  1.0
  Cl  Cl7  1  0.44080717  0.45643765  0.36484071  1.0
