# generated using pymatgen
data_NaCl
_symmetry_space_group_name_H-M   'P 1'
_cell_length_a   5.92984460
_cell_length_b   2.02708241
_cell_length_c   19.33997794
_cell_angle_alpha   90.00000000
_cell_angle_beta   56.73750211
_cell_angle_gamma   90.00000000
_symmetry_Int_Tables_number   1
_chemical_formula_structural   NaCl
_chemical_formula_sum   'Na4 Cl4'
_cell_volume   194.38532499
_cell_formula_units_Z   4
loop_
 _symmetry_equiv_pos_site_id
 _symmetry_equiv_pos_as_xyz
  1  'x, y, z'
loop_
 _atom_site_type_symbol
 _atom_site_label
 _atom_site_symmetry_multiplicity
 _atom_site_fract_x
 _atom_site_fract_y
 _atom_site_fract_z
 _atom_site_occupancy
  Na  Na0  1  0.04695619  0.45649589  0.06773396  1.0
  Na  Na1  1  0.88652123  0.96818795  0.76534393  1.0
  Na  Na2  1  0.60154533  0.87070389  0.18503744  1.0
  Na  Na3  1  0.61423522  0.90339587  0.42264303  1.0
  Cl  Cl4  1  0.13175990  0.09611400  0.34454393  1.0
  Cl  Cl5  1  0.25992961  0.13309516  0.91520350  1.0
  Cl  Cl6  1  0.41957823  0.40056729  0.86443769  1.0
  Cl  Cl7  1  0.39125383  0.30793498  0.80487769  1.0
