# generated using pymatgen
data_NaCl
_symmetry_space_group_name_H-M   'P 1'
_cell_length_a   4.11922173
_cell_length_b   4.11922173
_cell_length_c   14.73767795
_cell_angle_alpha   90.00000000
_cell_angle_beta   90.00000000
_cell_angle_gamma   90.00000000
_symmetry_Int_Tables_number   1
_chemical_formula_structural   NaCl
_chemical_formula_sum   'Na4 Cl4'
_cell_volume   250.06873761
_cell_formula_units_Z   4
loop_
 _symmetry_equiv_pos_site_id
 _symmetry_equiv_pos_as_xyz
  1  'x, y, z'
loop_
 _atom_site_type_symbol
 _atom_site_label
 _atom_site_symmetry_multiplicity
 _atom_site_fract_x
 _atom_site_fract_y
 _atom_site_fract_z
 _atom_site_occupancy
  Na  Na0  1  0.11313677  0.46972250  0.14310152  1.0
  Na  Na1  1  0.09597718  0.61586401  0.64925059  1.0
  Na  Na2  1  0.80392576  0.12167360  0.45254969  1.0
  Na  Na3  1  0.66539403  0.90738729  0.70499676  1.0
  Cl  Cl4  1  0.36663038  0.04751281  0.37479736  1.0
  Cl  Cl5  1  0.80180349  0.05646397  0.29201869  1.0
  Cl  Cl6  1  0.32091340  0.95298552  0.17549586  1.0
  Cl  Cl7  1  0.39762592  0.82425987  0.26363430  1.0
