# generated using pymatgen
data_NaCl
_symmetry_space_group_name_H-M   'P 1'
_cell_length_a   5.67508996
_cell_length_b   13.67373876
_cell_length_c   2.67700764
_cell_angle_alpha   90.00000000
_cell_angle_beta   90.00000000
_cell_angle_gamma   90.00000000
_symmetry_Int_Tables_number   1
_chemical_formula_structural   NaCl
_chemical_formula_sum   'Na4 Cl4'
_cell_volume   207.73498321
_cell_formula_units_Z   4
loop_
 _symmetry_equiv_pos_site_id
 _symmetry_equiv_pos_as_xyz
  1  'x, y, z'
loop_
 _atom_site_type_symbol
 _atom_site_label
 _atom_site_symmetry_multiplicity
 _atom_site_fract_x
 _atom_site_fract_y
 _atom_site_fract_z
 _atom_site_occupancy
  Na  Na0  1  0.00000000  0.00000000  0.99960010  1.0
  Na  Na1  1  0.50000000  0.00000000  0.83302340  1.0
  Na  Na2  1  0.50000000  0.50000000  0.70238463  1.0
  Na  Na3  1  0.00000000  0.50000000  0.12740012  1.0
  Cl  Cl4  1  0.25000000  0.25356288  0.15711054  1.0
  Cl  Cl5  1  0.75000000  0.21104181  0.47402448  1.0
  Cl  Cl6  1  0.75000000  0.07825704  0.55492928  1.0
  Cl  Cl7  1  0.25000000  0.63251465  0.23969591  1.0
