# generated using pymatgen
data_NaCl
_symmetry_space_group_name_H-M   'P 1'
_cell_length_a   4.51793080
_cell_length_b   3.03444433
_cell_length_c   16.62084163
_cell_angle_alpha   90.00000000
_cell_angle_beta   90.00000000
_cell_angle_gamma   90.00000000
_symmetry_Int_Tables_number   1
_chemical_formula_structural   NaCl
_chemical_formula_sum   'Na4 Cl4'
_cell_volume   227.86192413
_cell_formula_units_Z   4
loop_
 _symmetry_equiv_pos_site_id
 _symmetry_equiv_pos_as_xyz
  1  'x, y, z'
loop_
 _atom_site_type_symbol
 _atom_site_label
 _atom_site_symmetry_multiplicity
 _atom_site_fract_x
 _atom_site_fract_y
 _atom_site_fract_z
 _atom_site_occupancy
  Na  Na0  1  0.90987326  0.66027154  0.50354875  1.0
  Na  Na1  1  0.27146596  0.10669117  0.06046322  1.0
  Na  Na2  1  0.95538501  0.86645380  0.07794558  1.0
  Na  Na3  1  0.01552191  0.01944756  0.79889364  1.0
  Cl  Cl4  1  0.64168520  0.78187514  0.00112736  1.0
  Cl  Cl5  1  0.15619024  0.57808752  0.53463337  1.0
  Cl  Cl6  1  0.26018775  0.72553461  0.30360668  1.0
  Cl  Cl7  1  0.77798976  0.36415868  0.23713205  1.0
