# generated using pymatgen
data_NaCl
_symmetry_space_group_name_H-M   'P 1'
_cell_length_a   6.44255222
_cell_length_b   3.57925888
_cell_length_c   13.05319876
_cell_angle_alpha   90.00000000
_cell_angle_beta   90.00000000
_cell_angle_gamma   90.00000000
_symmetry_Int_Tables_number   1
_chemical_formula_structural   NaCl
_chemical_formula_sum   'Na4 Cl4'
_cell_volume   301.00104928
_cell_formula_units_Z   4
loop_
 _symmetry_equiv_pos_site_id
 _symmetry_equiv_pos_as_xyz
  1  'x, y, z'
loop_
 _atom_site_type_symbol
 _atom_site_label
 _atom_site_symmetry_multiplicity
 _atom_site_fract_x
 _atom_site_fract_y
 _atom_site_fract_z
 _atom_site_occupancy
  Na  Na0  1  0.85429400  0.71126345  0.34606017  1.0
  Na  Na1  1  0.37249046  0.51169549  0.91108757  1.0
  Na  Na2  1  0.63187596  0.49929836  0.04102533  1.0
  Na  Na3  1  0.90483094  0.53751497  0.78606068  1.0
  Cl  Cl4  1  0.64863102  0.79403706  0.01954886  1.0
  Cl  Cl5  1  0.08011799  0.27304566  0.51513198  1.0
  Cl  Cl6  1  0.46691159  0.87240333  0.38124568  1.0
  Cl  Cl7  1  0.62157305  0.47871915  0.16045830  1.0
