# generated using pymatgen
data_NaCl
_symmetry_space_group_name_H-M   'P 1'
_cell_length_a   6.94288813
_cell_length_b   3.86817743
_cell_length_c   7.07942646
_cell_angle_alpha   90.00000000
_cell_angle_beta   90.00000000
_cell_angle_gamma   90.00000000
_symmetry_Int_Tables_number   1
_chemical_formula_structural   NaCl
_chemical_formula_sum   'Na4 Cl4'
_cell_volume   190.12736482
_cell_formula_units_Z   4
loop_
 _symmetry_equiv_pos_site_id
 _symmetry_equiv_pos_as_xyz
  1  'x, y, z'
loop_
 _atom_site_type_symbol
 _atom_site_label
 _atom_site_symmetry_multiplicity
 _atom_site_fract_x
 _atom_site_fract_y
 _atom_site_fract_z
 _atom_site_occupancy
  Na  Na0  1  0.76201685  0.68321721  0.33787994  1.0
  Na  Na1  1  0.25266909  0.52425497  0.30280519  1.0
  Na  Na2  1  0.17572840  0.30092714  0.14001617  1.0
  Na  Na3  1  0.02987835  0.05016731  0.77966562  1.0
  Cl  Cl4  1  0.67046498  0.75350276  0.05902648  1.0
  Cl  Cl5  1  0.05323026  0.23327703  0.57260335  1.0
  Cl  Cl6  1  0.48092978  0.51733073  0.25929306  1.0
  Cl  Cl7  1  0.75439832  0.84068031  0.16598487  1.0
