# generated using pymatgen
data_NaCl
_symmetry_space_group_name_H-M   'P 1'
_cell_length_a   4.68400355
_cell_length_b   3.55012342
_cell_length_c   15.17759032
_cell_angle_alpha   90.00000000
_cell_angle_beta   90.00000000
_cell_angle_gamma   90.00000000
_symmetry_Int_Tables_number   1
_chemical_formula_structural   NaCl
_chemical_formula_sum   'Na4 Cl4'
_cell_volume   252.38497280
_cell_formula_units_Z   4
loop_
 _symmetry_equiv_pos_site_id
 _symmetry_equiv_pos_as_xyz
  1  'x, y, z'
loop_
 _atom_site_type_symbol
 _atom_site_label
 _atom_site_symmetry_multiplicity
 _atom_site_fract_x
 _atom_site_fract_y
 _atom_site_fract_z
 _atom_site_occupancy
  Na  Na0  1  0.87860793  0.70217930  0.56908874  1.0
  Na  Na1  1  0.80763320  0.62695921  0.39067787  1.0
  Na  Na2  1  0.15188081  0.92545193  0.49996576  1.0
  Na  Na3  1  0.91898432  0.15276661  0.83140426  1.0
  Cl  Cl4  1  0.62765058  0.57154670  0.05857182  1.0
  Cl  Cl5  1  0.55537191  0.22609507  0.50057279  1.0
  Cl  Cl6  1  0.00167501  0.49092600  0.25555721  1.0
  Cl  Cl7  1  0.30763296  0.59607718  0.29567827  1.0
