# generated using pymatgen
data_NaCl
_symmetry_space_group_name_H-M   'P 1'
_cell_length_a   5.71028859
_cell_length_b   5.71028859
_cell_length_c   11.81553778
_cell_angle_alpha   90.00000000
_cell_angle_beta   90.00000000
_cell_angle_gamma   90.00000000
_symmetry_Int_Tables_number   1
_chemical_formula_structural   NaCl
_chemical_formula_sum   'Na4 Cl4'
_cell_volume   385.27391676
_cell_formula_units_Z   4
loop_
 _symmetry_equiv_pos_site_id
 _symmetry_equiv_pos_as_xyz
  1  'x, y, z'
loop_
 _atom_site_type_symbol
 _atom_site_label
 _atom_site_symmetry_multiplicity
 _atom_site_fract_x
 _atom_site_fract_y
 _atom_site_fract_z
 _atom_site_occupancy
  Na  Na0  1  0.53576466  0.58916535  0.48177483  1.0
  Na  Na1  1  0.35137748  0.38110645  0.14860081  1.0
  Na  Na2  1  0.63256326  0.48697476  0.26701803  1.0
  Na  Na3  1  0.63887920  0.45204158  0.86489046  1.0
  Cl  Cl4  1  0.54340628  0.86495242  0.12900994  1.0
  Cl  Cl5  1  0.15225613  0.51549751  0.55293730  1.0
  Cl  Cl6  1  0.95510943  0.90818697  0.72031828  1.0
  Cl  Cl7  1  0.86180531  0.30733014  0.48943102  1.0
