# generated using pymatgen
data_NaCl
_symmetry_space_group_name_H-M   'P 1'
_cell_length_a   7.08694192
_cell_length_b   7.08694192
_cell_length_c   7.08694192
_cell_angle_alpha   90.00000000
_cell_angle_beta   90.00000000
_cell_angle_gamma   90.00000000
_symmetry_Int_Tables_number   1
_chemical_formula_structural   NaCl
_chemical_formula_sum   'Na4 Cl4'
_cell_volume   355.93985627
_cell_formula_units_Z   4
loop_
 _symmetry_equiv_pos_site_id
 _symmetry_equiv_pos_as_xyz
  1  'x, y, z'
loop_
 _atom_site_type_symbol
 _atom_site_label
 _atom_site_symmetry_multiplicity
 _atom_site_fract_x
 _atom_site_fract_y
 _atom_site_fract_z
 _atom_site_occupancy
  Na  Na0  1  0.80550532  0.80550532  0.80550532  1.0
  Na  Na1  1  0.94157219  0.44157219  0.05842781  1.0
  Na  Na2  1  0.59395675  0.90604325  0.09395675  1.0
  Na  Na3  1  0.06976860  0.93023140  0.43023140  1.0
  Cl  Cl4  1  0.61756854  0.61756854  0.61756854  1.0
  Cl  Cl5  1  0.50051848  0.00051848  0.49948152  1.0
  Cl  Cl6  1  0.03946105  0.46053895  0.53946105  1.0
  Cl  Cl7  1  0.23730555  0.76269445  0.26269445  1.0
