# generated using pymatgen
data_NaCl
_symmetry_space_group_name_H-M   'P 1'
_cell_length_a   11.79190908
_cell_length_b   15.87785576
_cell_length_c   2.00803376
_cell_angle_alpha   90.00000000
_cell_angle_beta   71.59578303
_cell_angle_gamma   90.00000000
_symmetry_Int_Tables_number   1
_chemical_formula_structural   NaCl
_chemical_formula_sum   'Na4 Cl4'
_cell_volume   356.73507932
_cell_formula_units_Z   4
loop_
 _symmetry_equiv_pos_site_id
 _symmetry_equiv_pos_as_xyz
  1  'x, y, z'
loop_
 _atom_site_type_symbol
 _atom_site_label
 _atom_site_symmetry_multiplicity
 _atom_site_fract_x
 _atom_site_fract_y
 _atom_site_fract_z
 _atom_site_occupancy
  Na  Na0  1  0.97775677  0.02368256  0.95698130  1.0
  Na  Na1  1  0.75169106  0.89072998  0.82170713  1.0
  Na  Na2  1  0.93949340  0.35042304  0.12550794  1.0
  Na  Na3  1  0.18611552  0.85948630  0.59139606  1.0
  Cl  Cl4  1  0.43071646  0.22255810  0.06857771  1.0
  Cl  Cl5  1  0.37295730  0.06163602  0.44254944  1.0
  Cl  Cl6  1  0.69676058  0.57201660  0.14092453  1.0
  Cl  Cl7  1  0.29594372  0.35748949  0.40103996  1.0
