# generated using pymatgen
data_NaCl
_symmetry_space_group_name_H-M   'P 1'
_cell_length_a   5.55653574
_cell_length_b   4.23824773
_cell_length_c   13.96639921
_cell_angle_alpha   90.00000000
_cell_angle_beta   90.00000000
_cell_angle_gamma   90.00000000
_symmetry_Int_Tables_number   1
_chemical_formula_structural   NaCl
_chemical_formula_sum   'Na4 Cl4'
_cell_volume   328.90835205
_cell_formula_units_Z   4
loop_
 _symmetry_equiv_pos_site_id
 _symmetry_equiv_pos_as_xyz
  1  'x, y, z'
loop_
 _atom_site_type_symbol
 _atom_site_label
 _atom_site_symmetry_multiplicity
 _atom_site_fract_x
 _atom_site_fract_y
 _atom_site_fract_z
 _atom_site_occupancy
  Na  Na0  1  0.91798377  0.60232432  0.25053984  1.0
  Na  Na1  1  0.44160216  0.29390903  0.36535815  1.0
  Na  Na2  1  0.10795908  0.32305901  0.05148451  1.0
  Na  Na3  1  0.69148292  0.61002474  0.82196631  1.0
  Cl  Cl4  1  0.61044746  0.59657680  0.16814522  1.0
  Cl  Cl5  1  0.06500596  0.03823102  0.78588513  1.0
  Cl  Cl6  1  0.49956231  0.49091013  0.09666034  1.0
  Cl  Cl7  1  0.57960358  0.45331283  0.93508588  1.0
