# generated using pymatgen
data_NaCl
_symmetry_space_group_name_H-M   'P 1'
_cell_length_a   6.32849837
_cell_length_b   6.32849837
_cell_length_c   5.78170135
_cell_angle_alpha   90.00000000
_cell_angle_beta   90.00000000
_cell_angle_gamma   90.00000000
_symmetry_Int_Tables_number   1
_chemical_formula_structural   NaCl
_chemical_formula_sum   'Na4 Cl4'
_cell_volume   231.55651244
_cell_formula_units_Z   4
loop_
 _symmetry_equiv_pos_site_id
 _symmetry_equiv_pos_as_xyz
  1  'x, y, z'
loop_
 _atom_site_type_symbol
 _atom_site_label
 _atom_site_symmetry_multiplicity
 _atom_site_fract_x
 _atom_site_fract_y
 _atom_site_fract_z
 _atom_site_occupancy
  Na  Na0  1  0.16822158  0.16822158  0.00000000  1.0
  Na  Na1  1  0.77264886  0.77264886  0.50000000  1.0
  Na  Na2  1  0.50221514  0.49778486  0.25000000  1.0
  Na  Na3  1  0.48293409  0.51706591  0.75000000  1.0
  Cl  Cl4  1  0.33197358  0.33197358  0.00000000  1.0
  Cl  Cl5  1  0.49014203  0.49014203  0.50000000  1.0
  Cl  Cl6  1  0.76072474  0.23927526  0.25000000  1.0
  Cl  Cl7  1  0.23216531  0.76783469  0.75000000  1.0
