# generated using pymatgen
data_NaCl
_symmetry_space_group_name_H-M   'P 1'
_cell_length_a   5.50972385
_cell_length_b   2.58313469
_cell_length_c   15.72098038
_cell_angle_alpha   90.00000000
_cell_angle_beta   109.40816451
_cell_angle_gamma   90.00000000
_symmetry_Int_Tables_number   1
_chemical_formula_structural   NaCl
_chemical_formula_sum   'Na4 Cl4'
_cell_volume   211.03230190
_cell_formula_units_Z   4
loop_
 _symmetry_equiv_pos_site_id
 _symmetry_equiv_pos_as_xyz
  1  'x, y, z'
loop_
 _atom_site_type_symbol
 _atom_site_label
 _atom_site_symmetry_multiplicity
 _atom_site_fract_x
 _atom_site_fract_y
 _atom_site_fract_z
 _atom_site_occupancy
  Na  Na0  1  0.81284403  0.71570530  0.43140714  1.0
  Na  Na1  1  0.64149788  0.51661024  0.28612996  1.0
  Na  Na2  1  0.65464791  0.03510335  0.08094910  1.0
  Na  Na3  1  0.39049962  0.96873646  0.62449231  1.0
  Cl  Cl4  1  0.61000005  0.77172808  0.52384899  1.0
  Cl  Cl5  1  0.93321728  0.08987827  0.59468353  1.0
  Cl  Cl6  1  0.98316338  0.46658190  0.27349340  1.0
  Cl  Cl7  1  0.68752094  0.07365914  0.97876711  1.0
