# generated using pymatgen
data_NaCl
_symmetry_space_group_name_H-M   'P 1'
_cell_length_a   4.96255109
_cell_length_b   4.31545320
_cell_length_c   16.45142285
_cell_angle_alpha   90.00000000
_cell_angle_beta   90.00000000
_cell_angle_gamma   90.00000000
_symmetry_Int_Tables_number   1
_chemical_formula_structural   NaCl
_chemical_formula_sum   'Na4 Cl4'
_cell_volume   352.31802861
_cell_formula_units_Z   4
loop_
 _symmetry_equiv_pos_site_id
 _symmetry_equiv_pos_as_xyz
  1  'x, y, z'
loop_
 _atom_site_type_symbol
 _atom_site_label
 _atom_site_symmetry_multiplicity
 _atom_site_fract_x
 _atom_site_fract_y
 _atom_site_fract_z
 _atom_site_occupancy
  Na  Na0  1  0.83380857  0.58179509  0.46624825  1.0
  Na  Na1  1  0.49456609  0.44462039  0.23996582  1.0
  Na  Na2  1  0.24642559  0.43600114  0.14897706  1.0
  Na  Na3  1  0.95298198  0.50025189  0.82749399  1.0
  Cl  Cl4  1  0.76917217  0.66528462  0.07129573  1.0
  Cl  Cl5  1  0.13125675  0.01183999  0.51549288  1.0
  Cl  Cl6  1  0.45015528  0.08892372  0.28920379  1.0
  Cl  Cl7  1  0.78341195  0.39057311  0.24014766  1.0
