# generated using pymatgen
data_NaCl
_symmetry_space_group_name_H-M   'P 1'
_cell_length_a   6.65971716
_cell_length_b   6.65971716
_cell_length_c   6.65971716
_cell_angle_alpha   90.00000000
_cell_angle_beta   90.00000000
_cell_angle_gamma   90.00000000
_symmetry_Int_Tables_number   1
_chemical_formula_structural   NaCl
_chemical_formula_sum   'Na4 Cl4'
_cell_volume   295.37066098
_cell_formula_units_Z   4
loop_
 _symmetry_equiv_pos_site_id
 _symmetry_equiv_pos_as_xyz
  1  'x, y, z'
loop_
 _atom_site_type_symbol
 _atom_site_label
 _atom_site_symmetry_multiplicity
 _atom_site_fract_x
 _atom_site_fract_y
 _atom_site_fract_z
 _atom_site_occupancy
  Na  Na0  1  0.84855072  0.84855072  0.84855072  1.0
  Na  Na1  1  0.80178760  0.30178760  0.19821240  1.0
  Na  Na2  1  0.27132141  0.22867859  0.77132141  1.0
  Na  Na3  1  0.91321179  0.08678821  0.58678821  1.0
  Cl  Cl4  1  0.45721645  0.45721645  0.45721645  1.0
  Cl  Cl5  1  0.51669517  0.01669517  0.48330483  1.0
  Cl  Cl6  1  0.00061571  0.49938429  0.50061571  1.0
  Cl  Cl7  1  0.24652998  0.75347002  0.25347002  1.0
