# generated using pymatgen
data_NaCl
_symmetry_space_group_name_H-M   'P 1'
_cell_length_a   9.70249348
_cell_length_b   17.42837826
_cell_length_c   4.04330001
_cell_angle_alpha   90.00000000
_cell_angle_beta   159.49745642
_cell_angle_gamma   90.00000000
_symmetry_Int_Tables_number   1
_chemical_formula_structural   NaCl
_chemical_formula_sum   'Na4 Cl4'
_cell_volume   239.47112928
_cell_formula_units_Z   4
loop_
 _symmetry_equiv_pos_site_id
 _symmetry_equiv_pos_as_xyz
  1  'x, y, z'
loop_
 _atom_site_type_symbol
 _atom_site_label
 _atom_site_symmetry_multiplicity
 _atom_site_fract_x
 _atom_site_fract_y
 _atom_site_fract_z
 _atom_site_occupancy
  Na  Na0  1  0.00000000  0.25889308  0.25000000  1.0
  Na  Na1  1  0.00000000  0.40909479  0.75000000  1.0
  Na  Na2  1  0.00000000  0.95177336  0.25000000  1.0
  Na  Na3  1  0.00000000  0.49713569  0.75000000  1.0
  Cl  Cl4  1  0.59204823  0.21621712  0.25234233  1.0
  Cl  Cl5  1  0.53063862  0.70192490  0.88272148  1.0
  Cl  Cl6  1  0.10122609  0.53927922  0.71327975  1.0
  Cl  Cl7  1  0.70367214  0.08838255  0.12489781  1.0
