# generated using pymatgen
data_NaCl
_symmetry_space_group_name_H-M   'P 1'
_cell_length_a   4.75019798
_cell_length_b   3.24857471
_cell_length_c   14.81947284
_cell_angle_alpha   90.00000000
_cell_angle_beta   90.00000000
_cell_angle_gamma   90.00000000
_symmetry_Int_Tables_number   1
_chemical_formula_structural   NaCl
_chemical_formula_sum   'Na4 Cl4'
_cell_volume   228.68481343
_cell_formula_units_Z   4
loop_
 _symmetry_equiv_pos_site_id
 _symmetry_equiv_pos_as_xyz
  1  'x, y, z'
loop_
 _atom_site_type_symbol
 _atom_site_label
 _atom_site_symmetry_multiplicity
 _atom_site_fract_x
 _atom_site_fract_y
 _atom_site_fract_z
 _atom_site_occupancy
  Na  Na0  1  0.00000000  0.00000000  0.42474724  1.0
  Na  Na1  1  0.50000000  0.50000000  0.51030297  1.0
  Na  Na2  1  0.00000000  0.00000000  0.17477724  1.0
  Na  Na3  1  0.50000000  0.50000000  0.31519021  1.0
  Cl  Cl4  1  0.54311255  0.62819697  0.04796349  1.0
  Cl  Cl5  1  0.00022169  0.07904930  0.05971376  1.0
  Cl  Cl6  1  0.44760892  0.89837139  0.33524207  1.0
  Cl  Cl7  1  0.73200786  0.38752751  0.66634340  1.0
