# generated using pymatgen
data_NaCl
_symmetry_space_group_name_H-M   'P 1'
_cell_length_a   5.41125407
_cell_length_b   2.47841010
_cell_length_c   11.33452435
_cell_angle_alpha   90.00000000
_cell_angle_beta   110.76735065
_cell_angle_gamma   90.00000000
_symmetry_Int_Tables_number   1
_chemical_formula_structural   NaCl
_chemical_formula_sum   'Na4 Cl4'
_cell_volume   142.13431973
_cell_formula_units_Z   4
loop_
 _symmetry_equiv_pos_site_id
 _symmetry_equiv_pos_as_xyz
  1  'x, y, z'
loop_
 _atom_site_type_symbol
 _atom_site_label
 _atom_site_symmetry_multiplicity
 _atom_site_fract_x
 _atom_site_fract_y
 _atom_site_fract_z
 _atom_site_occupancy
  Na  Na0  1  0.87935344  0.67406830  0.49231166  1.0
  Na  Na1  1  0.34504711  0.98618951  0.21294632  1.0
  Na  Na2  1  0.53782060  0.07014030  0.06819615  1.0
  Na  Na3  1  0.44008319  0.56662890  0.74091988  1.0
  Cl  Cl4  1  0.68083089  0.71600280  0.03232453  1.0
  Cl  Cl5  1  0.02328245  0.39554173  0.94932978  1.0
  Cl  Cl6  1  0.91983255  0.42427041  0.30794701  1.0
  Cl  Cl7  1  0.27292525  0.40208702  0.28939339  1.0
