# generated using pymatgen
data_NaCl
_symmetry_space_group_name_H-M   'P 1'
_cell_length_a   5.37698202
_cell_length_b   2.58546823
_cell_length_c   12.43738256
_cell_angle_alpha   90.00000000
_cell_angle_beta   107.30143657
_cell_angle_gamma   90.00000000
_symmetry_Int_Tables_number   1
_chemical_formula_structural   NaCl
_chemical_formula_sum   'Na4 Cl4'
_cell_volume   165.08133432
_cell_formula_units_Z   4
loop_
 _symmetry_equiv_pos_site_id
 _symmetry_equiv_pos_as_xyz
  1  'x, y, z'
loop_
 _atom_site_type_symbol
 _atom_site_label
 _atom_site_symmetry_multiplicity
 _atom_site_fract_x
 _atom_site_fract_y
 _atom_site_fract_z
 _atom_site_occupancy
  Na  Na0  1  0.87284701  0.63110368  0.45686363  1.0
  Na  Na1  1  0.34476252  0.95132454  0.10888030  1.0
  Na  Na2  1  0.42461347  0.03662508  0.01655833  1.0
  Na  Na3  1  0.42671787  0.53212066  0.75285792  1.0
  Cl  Cl4  1  0.66417860  0.71830949  0.04522779  1.0
  Cl  Cl5  1  0.09952522  0.30385781  0.90919436  1.0
  Cl  Cl6  1  0.96212750  0.42819525  0.35627896  1.0
  Cl  Cl7  1  0.26567071  0.39951819  0.37141624  1.0
