# generated using pymatgen
data_NaCl
_symmetry_space_group_name_H-M   'P 1'
_cell_length_a   6.80635708
_cell_length_b   6.80635708
_cell_length_c   6.80635708
_cell_angle_alpha   90.00000000
_cell_angle_beta   90.00000000
_cell_angle_gamma   90.00000000
_symmetry_Int_Tables_number   1
_chemical_formula_structural   NaCl
_chemical_formula_sum   'Na4 Cl4'
_cell_volume   315.31467881
_cell_formula_units_Z   4
loop_
 _symmetry_equiv_pos_site_id
 _symmetry_equiv_pos_as_xyz
  1  'x, y, z'
loop_
 _atom_site_type_symbol
 _atom_site_label
 _atom_site_symmetry_multiplicity
 _atom_site_fract_x
 _atom_site_fract_y
 _atom_site_fract_z
 _atom_site_occupancy
  Na  Na0  1  0.83796085  0.83796085  0.83796085  1.0
  Na  Na1  1  0.80606276  0.30606276  0.19393724  1.0
  Na  Na2  1  0.28738298  0.21261702  0.78738298  1.0
  Na  Na3  1  0.04058804  0.95941196  0.45941196  1.0
  Cl  Cl4  1  0.57278784  0.57278784  0.57278784  1.0
  Cl  Cl5  1  0.58075132  0.08075132  0.41924868  1.0
  Cl  Cl6  1  0.09424409  0.40575591  0.59424409  1.0
  Cl  Cl7  1  0.24523322  0.75476678  0.25476678  1.0
