# generated using pymatgen
data_NaCl
_symmetry_space_group_name_H-M   'P 1'
_cell_length_a   6.86902758
_cell_length_b   2.00144077
_cell_length_c   12.92937978
_cell_angle_alpha   90.00000000
_cell_angle_beta   90.00000000
_cell_angle_gamma   90.00000000
_symmetry_Int_Tables_number   1
_chemical_formula_structural   NaCl
_chemical_formula_sum   'Na4 Cl4'
_cell_volume   177.75249065
_cell_formula_units_Z   4
loop_
 _symmetry_equiv_pos_site_id
 _symmetry_equiv_pos_as_xyz
  1  'x, y, z'
loop_
 _atom_site_type_symbol
 _atom_site_label
 _atom_site_symmetry_multiplicity
 _atom_site_fract_x
 _atom_site_fract_y
 _atom_site_fract_z
 _atom_site_occupancy
  Na  Na0  1  0.00000000  0.72726405  0.46820193  1.0
  Na  Na1  1  0.50000000  0.54821118  0.28362023  1.0
  Na  Na2  1  0.00000000  0.09823466  0.04221881  1.0
  Na  Na3  1  0.50000000  0.92949506  0.73139735  1.0
  Cl  Cl4  1  0.52821440  0.73612006  0.00063765  1.0
  Cl  Cl5  1  0.50164472  0.10630314  0.58877200  1.0
  Cl  Cl6  1  0.43114639  0.58764493  0.78980364  1.0
  Cl  Cl7  1  0.28777426  0.85049221  0.69427258  1.0
