# generated using pymatgen
data_NaCl
_symmetry_space_group_name_H-M   'P 1'
_cell_length_a   3.92621885
_cell_length_b   2.03712910
_cell_length_c   20.04525659
_cell_angle_alpha   90.00000000
_cell_angle_beta   90.00000000
_cell_angle_gamma   90.00000000
_symmetry_Int_Tables_number   1
_chemical_formula_structural   NaCl
_chemical_formula_sum   'Na4 Cl4'
_cell_volume   160.32626537
_cell_formula_units_Z   4
loop_
 _symmetry_equiv_pos_site_id
 _symmetry_equiv_pos_as_xyz
  1  'x, y, z'
loop_
 _atom_site_type_symbol
 _atom_site_label
 _atom_site_symmetry_multiplicity
 _atom_site_fract_x
 _atom_site_fract_y
 _atom_site_fract_z
 _atom_site_occupancy
  Na  Na0  1  0.77625304  0.70472286  0.43320993  1.0
  Na  Na1  1  0.29035381  0.54047586  0.33538037  1.0
  Na  Na2  1  0.17353095  0.48223707  0.19877712  1.0
  Na  Na3  1  0.05547554  0.50060570  0.76990989  1.0
  Cl  Cl4  1  0.58223455  0.72695250  0.06968122  1.0
  Cl  Cl5  1  0.03569598  0.14904751  0.56678542  1.0
  Cl  Cl6  1  0.44183609  0.00326662  0.27497202  1.0
  Cl  Cl7  1  0.81200848  0.38981623  0.05452099  1.0
