# generated using pymatgen
data_NaCl
_symmetry_space_group_name_H-M   'P 1'
_cell_length_a   4.30092345
_cell_length_b   3.42749639
_cell_length_c   15.16296247
_cell_angle_alpha   90.00000000
_cell_angle_beta   90.00000000
_cell_angle_gamma   90.00000000
_symmetry_Int_Tables_number   1
_chemical_formula_structural   NaCl
_chemical_formula_sum   'Na4 Cl4'
_cell_volume   223.52328887
_cell_formula_units_Z   4
loop_
 _symmetry_equiv_pos_site_id
 _symmetry_equiv_pos_as_xyz
  1  'x, y, z'
loop_
 _atom_site_type_symbol
 _atom_site_label
 _atom_site_symmetry_multiplicity
 _atom_site_fract_x
 _atom_site_fract_y
 _atom_site_fract_z
 _atom_site_occupancy
  Na  Na0  1  0.00000000  0.63418378  0.47200920  1.0
  Na  Na1  1  0.50000000  0.56142639  0.35667323  1.0
  Na  Na2  1  0.00000000  0.08869928  0.10021473  1.0
  Na  Na3  1  0.50000000  0.96038760  0.85568987  1.0
  Cl  Cl4  1  0.68980343  0.92198534  0.06437813  1.0
  Cl  Cl5  1  0.59744502  0.16348114  0.53908134  1.0
  Cl  Cl6  1  0.43073972  0.57155724  0.50018180  1.0
  Cl  Cl7  1  0.25861617  0.85206161  0.70472024  1.0
