# generated using pymatgen
data_NaCl
_symmetry_space_group_name_H-M   'P 1'
_cell_length_a   6.65487406
_cell_length_b   3.74159010
_cell_length_c   14.20252023
_cell_angle_alpha   90.00000000
_cell_angle_beta   90.00000000
_cell_angle_gamma   90.00000000
_symmetry_Int_Tables_number   1
_chemical_formula_structural   NaCl
_chemical_formula_sum   'Na4 Cl4'
_cell_volume   353.64006803
_cell_formula_units_Z   4
loop_
 _symmetry_equiv_pos_site_id
 _symmetry_equiv_pos_as_xyz
  1  'x, y, z'
loop_
 _atom_site_type_symbol
 _atom_site_label
 _atom_site_symmetry_multiplicity
 _atom_site_fract_x
 _atom_site_fract_y
 _atom_site_fract_z
 _atom_site_occupancy
  Na  Na0  1  0.00000000  0.00000000  0.50894601  1.0
  Na  Na1  1  0.50000000  0.00000000  0.76661530  1.0
  Na  Na2  1  0.00000000  0.50000000  0.59202299  1.0
  Na  Na3  1  0.50000000  0.50000000  0.81271584  1.0
  Cl  Cl4  1  0.25000000  0.81771825  0.04473474  1.0
  Cl  Cl5  1  0.75000000  0.18989487  0.85838408  1.0
  Cl  Cl6  1  0.25000000  0.97736643  0.77919130  1.0
  Cl  Cl7  1  0.75000000  0.59317721  0.18728277  1.0
