# generated using pymatgen
data_NaCl
_symmetry_space_group_name_H-M   'P 1'
_cell_length_a   6.07310386
_cell_length_b   2.03226132
_cell_length_c   14.50659767
_cell_angle_alpha   90.00000000
_cell_angle_beta   90.00000000
_cell_angle_gamma   90.00000000
_symmetry_Int_Tables_number   1
_chemical_formula_structural   NaCl
_chemical_formula_sum   'Na4 Cl4'
_cell_volume   179.04237330
_cell_formula_units_Z   4
loop_
 _symmetry_equiv_pos_site_id
 _symmetry_equiv_pos_as_xyz
  1  'x, y, z'
loop_
 _atom_site_type_symbol
 _atom_site_label
 _atom_site_symmetry_multiplicity
 _atom_site_fract_x
 _atom_site_fract_y
 _atom_site_fract_z
 _atom_site_occupancy
  Na  Na0  1  0.87986840  0.70207218  0.44453667  1.0
  Na  Na1  1  0.90325296  0.57080207  0.27652506  1.0
  Na  Na2  1  0.51727421  0.54529989  0.48282732  1.0
  Na  Na3  1  0.07487603  0.49885932  0.72337546  1.0
  Cl  Cl4  1  0.63663473  0.78149299  0.07280929  1.0
  Cl  Cl5  1  0.55278047  0.17080488  0.56946305  1.0
  Cl  Cl6  1  0.00078640  0.01883135  0.20719196  1.0
  Cl  Cl7  1  0.25857602  0.58916299  0.36889757  1.0
