# generated using pymatgen
data_NaCl
_symmetry_space_group_name_H-M   'P 1'
_cell_length_a   5.40283783
_cell_length_b   3.01142071
_cell_length_c   16.56960718
_cell_angle_alpha   90.00000000
_cell_angle_beta   90.00000000
_cell_angle_gamma   90.00000000
_symmetry_Int_Tables_number   1
_chemical_formula_structural   NaCl
_chemical_formula_sum   'Na4 Cl4'
_cell_volume   269.59111659
_cell_formula_units_Z   4
loop_
 _symmetry_equiv_pos_site_id
 _symmetry_equiv_pos_as_xyz
  1  'x, y, z'
loop_
 _atom_site_type_symbol
 _atom_site_label
 _atom_site_symmetry_multiplicity
 _atom_site_fract_x
 _atom_site_fract_y
 _atom_site_fract_z
 _atom_site_occupancy
  Na  Na0  1  0.00000000  0.00000000  0.53151786  1.0
  Na  Na1  1  0.50000000  0.50000000  0.83824624  1.0
  Na  Na2  1  0.00000000  0.50000000  0.12942906  1.0
  Na  Na3  1  0.50000000  0.00000000  0.33295680  1.0
  Cl  Cl4  1  0.66053754  0.00000000  0.09129482  1.0
  Cl  Cl5  1  0.11283432  0.00000000  0.11025368  1.0
  Cl  Cl6  1  0.48274487  0.50000000  0.26866151  1.0
  Cl  Cl7  1  0.75608456  0.50000000  0.70667252  1.0
