# generated using pymatgen
data_NaCl
_symmetry_space_group_name_H-M   'P 1'
_cell_length_a   7.19079905
_cell_length_b   2.02573239
_cell_length_c   17.82637119
_cell_angle_alpha   90.00000000
_cell_angle_beta   100.54582104
_cell_angle_gamma   90.00000000
_symmetry_Int_Tables_number   1
_chemical_formula_structural   NaCl
_chemical_formula_sum   'Na4 Cl4'
_cell_volume   255.28410663
_cell_formula_units_Z   4
loop_
 _symmetry_equiv_pos_site_id
 _symmetry_equiv_pos_as_xyz
  1  'x, y, z'
loop_
 _atom_site_type_symbol
 _atom_site_label
 _atom_site_symmetry_multiplicity
 _atom_site_fract_x
 _atom_site_fract_y
 _atom_site_fract_z
 _atom_site_occupancy
  Na  Na0  1  0.94133323  0.00000000  0.38431254  1.0
  Na  Na1  1  0.22865614  0.50000000  0.81866214  1.0
  Na  Na2  1  0.68655147  0.00000000  0.62233797  1.0
  Na  Na3  1  0.90072071  0.50000000  0.10282330  1.0
  Cl  Cl4  1  0.50337275  0.00000000  0.08115294  1.0
  Cl  Cl5  1  0.38137969  0.50000000  0.04319032  1.0
  Cl  Cl6  1  0.99868599  0.00000000  0.21928301  1.0
  Cl  Cl7  1  0.36069348  0.50000000  0.65804114  1.0
