# generated using pymatgen
data_NaCl
_symmetry_space_group_name_H-M   'P 1'
_cell_length_a   5.37886850
_cell_length_b   5.37886850
_cell_length_c   5.37886850
_cell_angle_alpha   90.00000000
_cell_angle_beta   90.00000000
_cell_angle_gamma   90.00000000
_symmetry_Int_Tables_number   1
_chemical_formula_structural   NaCl
_chemical_formula_sum   'Na4 Cl4'
_cell_volume   155.62264090
_cell_formula_units_Z   4
loop_
 _symmetry_equiv_pos_site_id
 _symmetry_equiv_pos_as_xyz
  1  'x, y, z'
loop_
 _atom_site_type_symbol
 _atom_site_label
 _atom_site_symmetry_multiplicity
 _atom_site_fract_x
 _atom_site_fract_y
 _atom_site_fract_z
 _atom_site_occupancy
  Na  Na0  1  0.89406760  0.89406760  0.89406760  1.0
  Na  Na1  1  0.91694464  0.41694464  0.08305536  1.0
  Na  Na2  1  0.47576268  0.02423732  0.97576268  1.0
  Na  Na3  1  0.03434106  0.96565894  0.46565894  1.0
  Cl  Cl4  1  0.54985216  0.54985216  0.54985216  1.0
  Cl  Cl5  1  0.53934716  0.03934716  0.46065284  1.0
  Cl  Cl6  1  0.02671038  0.47328962  0.52671038  1.0
  Cl  Cl7  1  0.26295677  0.73704323  0.23704323  1.0
