# generated using pymatgen
data_NaCl
_symmetry_space_group_name_H-M   'P 1'
_cell_length_a   6.25957686
_cell_length_b   6.25957686
_cell_length_c   6.25957686
_cell_angle_alpha   90.00000000
_cell_angle_beta   90.00000000
_cell_angle_gamma   90.00000000
_symmetry_Int_Tables_number   1
_chemical_formula_structural   NaCl
_chemical_formula_sum   'Na4 Cl4'
_cell_volume   245.26463384
_cell_formula_units_Z   4
loop_
 _symmetry_equiv_pos_site_id
 _symmetry_equiv_pos_as_xyz
  1  'x, y, z'
loop_
 _atom_site_type_symbol
 _atom_site_label
 _atom_site_symmetry_multiplicity
 _atom_site_fract_x
 _atom_site_fract_y
 _atom_site_fract_z
 _atom_site_occupancy
  Na  Na0  1  0.00000000  0.50000000  0.50000000  1.0
  Na  Na1  1  0.50000000  0.00000000  0.50000000  1.0
  Na  Na2  1  0.50000000  0.50000000  0.00000000  1.0
  Na  Na3  1  0.50000000  0.50000000  0.50000000  1.0
  Cl  Cl4  1  0.78468181  0.78468181  0.78468181  1.0
  Cl  Cl5  1  0.19288232  0.19288232  0.80711768  1.0
  Cl  Cl6  1  0.00033718  0.99966282  0.00033718  1.0
  Cl  Cl7  1  0.79867111  0.20132889  0.20132889  1.0
