# generated using pymatgen
data_NaCl
_symmetry_space_group_name_H-M   'P 1'
_cell_length_a   6.67973168
_cell_length_b   2.02139396
_cell_length_c   12.31593031
_cell_angle_alpha   90.00000000
_cell_angle_beta   90.00000000
_cell_angle_gamma   90.00000000
_symmetry_Int_Tables_number   1
_chemical_formula_structural   NaCl
_chemical_formula_sum   'Na4 Cl4'
_cell_volume   166.29423898
_cell_formula_units_Z   4
loop_
 _symmetry_equiv_pos_site_id
 _symmetry_equiv_pos_as_xyz
  1  'x, y, z'
loop_
 _atom_site_type_symbol
 _atom_site_label
 _atom_site_symmetry_multiplicity
 _atom_site_fract_x
 _atom_site_fract_y
 _atom_site_fract_z
 _atom_site_occupancy
  Na  Na0  1  0.70077909  0.67826416  0.30993467  1.0
  Na  Na1  1  0.39593801  0.53694773  0.23801948  1.0
  Na  Na2  1  0.02514831  0.99881455  0.20137338  1.0
  Na  Na3  1  0.89041576  0.16276740  0.79226912  1.0
  Cl  Cl4  1  0.66666667  0.76924453  0.03272515  1.0
  Cl  Cl5  1  0.13667295  0.14556626  0.62772379  1.0
  Cl  Cl6  1  0.09302449  0.40986093  0.29420313  1.0
  Cl  Cl7  1  0.74377287  0.92509581  0.08820040  1.0
