# generated using pymatgen
data_NaCl
_symmetry_space_group_name_H-M   'P 1'
_cell_length_a   5.03144234
_cell_length_b   5.03144234
_cell_length_c   14.98955777
_cell_angle_alpha   90.00000000
_cell_angle_beta   90.00000000
_cell_angle_gamma   90.00000000
_symmetry_Int_Tables_number   1
_chemical_formula_structural   NaCl
_chemical_formula_sum   'Na4 Cl4'
_cell_volume   379.46683096
_cell_formula_units_Z   4
loop_
 _symmetry_equiv_pos_site_id
 _symmetry_equiv_pos_as_xyz
  1  'x, y, z'
loop_
 _atom_site_type_symbol
 _atom_site_label
 _atom_site_symmetry_multiplicity
 _atom_site_fract_x
 _atom_site_fract_y
 _atom_site_fract_z
 _atom_site_occupancy
  Na  Na0  1  0.84453009  0.69211160  0.46933892  1.0
  Na  Na1  1  0.48285093  0.60022786  0.11538979  1.0
  Na  Na2  1  0.98072118  0.65700839  0.84274605  1.0
  Na  Na3  1  0.13473623  0.39063887  0.39990762  1.0
  Cl  Cl4  1  0.61430213  0.73400883  0.00023818  1.0
  Cl  Cl5  1  0.04937933  0.16019174  0.58885258  1.0
  Cl  Cl6  1  0.52654930  0.92657963  0.95041992  1.0
  Cl  Cl7  1  0.92170598  0.38443926  0.85608991  1.0
