# generated using pymatgen
data_NaCl
_symmetry_space_group_name_H-M   'P 1'
_cell_length_a   7.08498160
_cell_length_b   3.34038609
_cell_length_c   15.33827938
_cell_angle_alpha   90.00000000
_cell_angle_beta   90.00000000
_cell_angle_gamma   90.00000000
_symmetry_Int_Tables_number   1
_chemical_formula_structural   NaCl
_chemical_formula_sum   'Na4 Cl4'
_cell_volume   363.00452374
_cell_formula_units_Z   4
loop_
 _symmetry_equiv_pos_site_id
 _symmetry_equiv_pos_as_xyz
  1  'x, y, z'
loop_
 _atom_site_type_symbol
 _atom_site_label
 _atom_site_symmetry_multiplicity
 _atom_site_fract_x
 _atom_site_fract_y
 _atom_site_fract_z
 _atom_site_occupancy
  Na  Na0  1  0.87051309  0.76107583  0.53166135  1.0
  Na  Na1  1  0.49985601  0.54665684  0.35779502  1.0
  Na  Na2  1  0.96517173  0.42443503  0.05787583  1.0
  Na  Na3  1  0.94794195  0.50054119  0.74975015  1.0
  Cl  Cl4  1  0.56392624  0.76611269  0.04866547  1.0
  Cl  Cl5  1  0.00000479  0.14882293  0.62421646  1.0
  Cl  Cl6  1  0.46918822  0.98130361  0.25449863  1.0
  Cl  Cl7  1  0.74294011  0.43370257  0.10888150  1.0
