# generated using pymatgen
data_NaCl
_symmetry_space_group_name_H-M   'P 1'
_cell_length_a   4.72679312
_cell_length_b   4.72679312
_cell_length_c   16.06799879
_cell_angle_alpha   90.00000000
_cell_angle_beta   90.00000000
_cell_angle_gamma   90.00000000
_symmetry_Int_Tables_number   1
_chemical_formula_structural   NaCl
_chemical_formula_sum   'Na4 Cl4'
_cell_volume   359.00043913
_cell_formula_units_Z   4
loop_
 _symmetry_equiv_pos_site_id
 _symmetry_equiv_pos_as_xyz
  1  'x, y, z'
loop_
 _atom_site_type_symbol
 _atom_site_label
 _atom_site_symmetry_multiplicity
 _atom_site_fract_x
 _atom_site_fract_y
 _atom_site_fract_z
 _atom_site_occupancy
  Na  Na0  1  0.79798841  0.64473573  0.41282129  1.0
  Na  Na1  1  0.30076010  0.55766285  0.28094366  1.0
  Na  Na2  1  0.93499602  0.70139733  0.89419527  1.0
  Na  Na3  1  0.11513342  0.60930796  0.40509014  1.0
  Cl  Cl4  1  0.63617713  0.80655005  0.04502479  1.0
  Cl  Cl5  1  0.01777569  0.22739614  0.58517190  1.0
  Cl  Cl6  1  0.43360106  0.99992973  0.90854218  1.0
  Cl  Cl7  1  0.93996406  0.32501864  0.93235480  1.0
