# generated using pymatgen
data_NaCl
_symmetry_space_group_name_H-M   'P 1'
_cell_length_a   11.16677034
_cell_length_b   7.00228064
_cell_length_c   3.38726479
_cell_angle_alpha   90.00000000
_cell_angle_beta   90.00000000
_cell_angle_gamma   90.00000000
_symmetry_Int_Tables_number   1
_chemical_formula_structural   NaCl
_chemical_formula_sum   'Na4 Cl4'
_cell_volume   264.85992070
_cell_formula_units_Z   4
loop_
 _symmetry_equiv_pos_site_id
 _symmetry_equiv_pos_as_xyz
  1  'x, y, z'
loop_
 _atom_site_type_symbol
 _atom_site_label
 _atom_site_symmetry_multiplicity
 _atom_site_fract_x
 _atom_site_fract_y
 _atom_site_fract_z
 _atom_site_occupancy
  Na  Na0  1  0.00000000  0.00478737  0.92326251  1.0
  Na  Na1  1  0.00000000  0.57109879  0.33062709  1.0
  Na  Na2  1  0.50000000  0.33410328  0.34499094  1.0
  Na  Na3  1  0.50000000  0.45116631  0.97938418  1.0
  Cl  Cl4  1  0.74674537  0.57757864  0.14066203  1.0
  Cl  Cl5  1  0.26582602  0.53355414  0.13191970  1.0
  Cl  Cl6  1  0.77375606  0.90009147  0.42750836  1.0
  Cl  Cl7  1  0.43799864  0.87786688  0.90258535  1.0
