# generated using pymatgen
data_NaCl
_symmetry_space_group_name_H-M   'P 1'
_cell_length_a   4.45485364
_cell_length_b   6.73076817
_cell_length_c   5.99453578
_cell_angle_alpha   90.00000000
_cell_angle_beta   90.00000000
_cell_angle_gamma   90.00000000
_symmetry_Int_Tables_number   1
_chemical_formula_structural   NaCl
_chemical_formula_sum   'Na4 Cl4'
_cell_volume   179.74368011
_cell_formula_units_Z   4
loop_
 _symmetry_equiv_pos_site_id
 _symmetry_equiv_pos_as_xyz
  1  'x, y, z'
loop_
 _atom_site_type_symbol
 _atom_site_label
 _atom_site_symmetry_multiplicity
 _atom_site_fract_x
 _atom_site_fract_y
 _atom_site_fract_z
 _atom_site_occupancy
  Na  Na0  1  0.70941019  0.72462726  0.85858215  1.0
  Na  Na1  1  0.84029736  0.27346529  0.28693254  1.0
  Na  Na2  1  0.21475804  0.69553307  0.33240539  1.0
  Na  Na3  1  0.43254085  0.27476605  0.44467151  1.0
  Cl  Cl4  1  0.74980066  0.53656371  0.10666648  1.0
  Cl  Cl5  1  0.83822516  0.09677075  0.98184072  1.0
  Cl  Cl6  1  0.01348110  0.79394021  0.96359114  1.0
  Cl  Cl7  1  0.42516123  0.53844001  0.26395802  1.0
