# generated using pymatgen
data_NaCl
_symmetry_space_group_name_H-M   'P 1'
_cell_length_a   5.99670002
_cell_length_b   3.02415229
_cell_length_c   12.47031002
_cell_angle_alpha   90.00000000
_cell_angle_beta   90.00000000
_cell_angle_gamma   90.00000000
_symmetry_Int_Tables_number   1
_chemical_formula_structural   NaCl
_chemical_formula_sum   'Na4 Cl4'
_cell_volume   226.14825039
_cell_formula_units_Z   4
loop_
 _symmetry_equiv_pos_site_id
 _symmetry_equiv_pos_as_xyz
  1  'x, y, z'
loop_
 _atom_site_type_symbol
 _atom_site_label
 _atom_site_symmetry_multiplicity
 _atom_site_fract_x
 _atom_site_fract_y
 _atom_site_fract_z
 _atom_site_occupancy
  Na  Na0  1  0.00000000  0.00000000  0.46837950  1.0
  Na  Na1  1  0.50000000  0.50000000  0.87984317  1.0
  Na  Na2  1  0.00000000  0.50000000  0.11467740  1.0
  Na  Na3  1  0.50000000  0.00000000  0.36292078  1.0
  Cl  Cl4  1  0.00000000  0.00000000  0.00073129  1.0
  Cl  Cl5  1  0.50000000  0.50000000  0.03095313  1.0
  Cl  Cl6  1  0.00000000  0.50000000  0.33540464  1.0
  Cl  Cl7  1  0.50000000  0.00000000  0.55118208  1.0
