# generated using pymatgen
data_NaCl
_symmetry_space_group_name_H-M   'P 1'
_cell_length_a   5.89670032
_cell_length_b   4.49775649
_cell_length_c   11.94231805
_cell_angle_alpha   90.00000000
_cell_angle_beta   90.00000000
_cell_angle_gamma   90.00000000
_symmetry_Int_Tables_number   1
_chemical_formula_structural   NaCl
_chemical_formula_sum   'Na4 Cl4'
_cell_volume   316.73322942
_cell_formula_units_Z   4
loop_
 _symmetry_equiv_pos_site_id
 _symmetry_equiv_pos_as_xyz
  1  'x, y, z'
loop_
 _atom_site_type_symbol
 _atom_site_label
 _atom_site_symmetry_multiplicity
 _atom_site_fract_x
 _atom_site_fract_y
 _atom_site_fract_z
 _atom_site_occupancy
  Na  Na0  1  0.92232276  0.82247013  0.44071341  1.0
  Na  Na1  1  0.05970176  0.52030865  0.25699281  1.0
  Na  Na2  1  0.51535009  0.50007012  0.39259595  1.0
  Na  Na3  1  0.98351672  0.48059189  0.70122250  1.0
  Cl  Cl4  1  0.59748161  0.81097808  0.01786949  1.0
  Cl  Cl5  1  0.51930673  0.02843909  0.53205532  1.0
  Cl  Cl6  1  0.09965419  0.94346622  0.13495190  1.0
  Cl  Cl7  1  0.26986942  0.54276667  0.33033010  1.0
