# generated using pymatgen
data_NaCl
_symmetry_space_group_name_H-M   'P 1'
_cell_length_a   6.01906019
_cell_length_b   3.67017306
_cell_length_c   12.48455648
_cell_angle_alpha   90.00000000
_cell_angle_beta   90.00000000
_cell_angle_gamma   90.00000000
_symmetry_Int_Tables_number   1
_chemical_formula_structural   NaCl
_chemical_formula_sum   'Na4 Cl4'
_cell_volume   275.79624426
_cell_formula_units_Z   4
loop_
 _symmetry_equiv_pos_site_id
 _symmetry_equiv_pos_as_xyz
  1  'x, y, z'
loop_
 _atom_site_type_symbol
 _atom_site_label
 _atom_site_symmetry_multiplicity
 _atom_site_fract_x
 _atom_site_fract_y
 _atom_site_fract_z
 _atom_site_occupancy
  Na  Na0  1  0.00000000  0.00000000  0.44706203  1.0
  Na  Na1  1  0.00000000  0.50000000  0.30208149  1.0
  Na  Na2  1  0.50000000  0.00000000  0.13906023  1.0
  Na  Na3  1  0.50000000  0.50000000  0.79743511  1.0
  Cl  Cl4  1  0.60242565  0.00000000  0.00101642  1.0
  Cl  Cl5  1  0.10703230  0.00000000  0.07313620  1.0
  Cl  Cl6  1  0.96296090  0.50000000  0.79596181  1.0
  Cl  Cl7  1  0.16611944  0.50000000  0.08131489  1.0
