# generated using pymatgen
data_NaCl
_symmetry_space_group_name_H-M   'P 1'
_cell_length_a   6.03685751
_cell_length_b   3.96122855
_cell_length_c   16.79538647
_cell_angle_alpha   90.00000000
_cell_angle_beta   92.47055871
_cell_angle_gamma   90.00000000
_symmetry_Int_Tables_number   1
_chemical_formula_structural   NaCl
_chemical_formula_sum   'Na4 Cl4'
_cell_volume   401.26101219
_cell_formula_units_Z   4
loop_
 _symmetry_equiv_pos_site_id
 _symmetry_equiv_pos_as_xyz
  1  'x, y, z'
loop_
 _atom_site_type_symbol
 _atom_site_label
 _atom_site_symmetry_multiplicity
 _atom_site_fract_x
 _atom_site_fract_y
 _atom_site_fract_z
 _atom_site_occupancy
  Na  Na0  1  0.91506713  0.52615402  0.43169719  1.0
  Na  Na1  1  0.46387169  0.40456612  0.25889537  1.0
  Na  Na2  1  0.25017631  0.59576939  0.12675720  1.0
  Na  Na3  1  0.04902813  0.47515952  0.81622916  1.0
  Cl  Cl4  1  0.71771660  0.68451976  0.13071440  1.0
  Cl  Cl5  1  0.85424933  0.05470702  0.50019828  1.0
  Cl  Cl6  1  0.49963855  0.86751141  0.33295241  1.0
  Cl  Cl7  1  0.19254804  0.68879556  0.22845938  1.0
