# generated using pymatgen
data_NaCl
_symmetry_space_group_name_H-M   'P 1'
_cell_length_a   7.39964851
_cell_length_b   2.92608579
_cell_length_c   15.88096552
_cell_angle_alpha   90.00000000
_cell_angle_beta   106.28216016
_cell_angle_gamma   90.00000000
_symmetry_Int_Tables_number   1
_chemical_formula_structural   NaCl
_chemical_formula_sum   'Na4 Cl4'
_cell_volume   330.06365774
_cell_formula_units_Z   4
loop_
 _symmetry_equiv_pos_site_id
 _symmetry_equiv_pos_as_xyz
  1  'x, y, z'
loop_
 _atom_site_type_symbol
 _atom_site_label
 _atom_site_symmetry_multiplicity
 _atom_site_fract_x
 _atom_site_fract_y
 _atom_site_fract_z
 _atom_site_occupancy
  Na  Na0  1  0.00000000  0.00000000  0.00000000  1.0
  Na  Na1  1  0.00000000  0.50000000  0.50000000  1.0
  Na  Na2  1  0.00000000  0.00000000  0.50000000  1.0
  Na  Na3  1  0.00000000  0.50000000  0.00000000  1.0
  Cl  Cl4  1  0.76514795  0.56312906  0.04591643  1.0
  Cl  Cl5  1  0.09711120  0.48102393  0.32088208  1.0
  Cl  Cl6  1  0.56033427  0.54721851  0.82376154  1.0
  Cl  Cl7  1  0.75390762  0.59017606  0.19154265  1.0
