# generated using pymatgen
data_NaCl
_symmetry_space_group_name_H-M   'P 1'
_cell_length_a   5.50249901
_cell_length_b   9.80106160
_cell_length_c   4.61504986
_cell_angle_alpha   90.00000000
_cell_angle_beta   90.00000000
_cell_angle_gamma   90.00000000
_symmetry_Int_Tables_number   1
_chemical_formula_structural   NaCl
_chemical_formula_sum   'Na4 Cl4'
_cell_volume   248.89117000
_cell_formula_units_Z   4
loop_
 _symmetry_equiv_pos_site_id
 _symmetry_equiv_pos_as_xyz
  1  'x, y, z'
loop_
 _atom_site_type_symbol
 _atom_site_label
 _atom_site_symmetry_multiplicity
 _atom_site_fract_x
 _atom_site_fract_y
 _atom_site_fract_z
 _atom_site_occupancy
  Na  Na0  1  0.22432066  0.66774204  0.99902224  1.0
  Na  Na1  1  0.09281740  0.80427217  0.36711359  1.0
  Na  Na2  1  0.43062917  0.17058955  0.01479751  1.0
  Na  Na3  1  0.76250713  0.44998575  0.11749008  1.0
  Cl  Cl4  1  0.65823603  0.34034568  0.11121517  1.0
  Cl  Cl5  1  0.42507029  0.41762346  0.07068443  1.0
  Cl  Cl6  1  0.47272435  0.56677280  0.85517169  1.0
  Cl  Cl7  1  0.75625161  0.76539267  0.38301304  1.0
