# generated using pymatgen
data_NaCl
_symmetry_space_group_name_H-M   'P 1'
_cell_length_a   8.73185153
_cell_length_b   8.73185153
_cell_length_c   2.46939469
_cell_angle_alpha   90.00000000
_cell_angle_beta   90.00000000
_cell_angle_gamma   90.00000000
_symmetry_Int_Tables_number   1
_chemical_formula_structural   NaCl
_chemical_formula_sum   'Na4 Cl4'
_cell_volume   188.27956892
_cell_formula_units_Z   4
loop_
 _symmetry_equiv_pos_site_id
 _symmetry_equiv_pos_as_xyz
  1  'x, y, z'
loop_
 _atom_site_type_symbol
 _atom_site_label
 _atom_site_symmetry_multiplicity
 _atom_site_fract_x
 _atom_site_fract_y
 _atom_site_fract_z
 _atom_site_occupancy
  Na  Na0  1  0.42381117  0.58042314  0.38860792  1.0
  Na  Na1  1  0.39198317  0.45094800  0.04786552  1.0
  Na  Na2  1  0.96996476  0.66115355  0.35097594  1.0
  Na  Na3  1  0.27396565  0.22307890  0.10492753  1.0
  Cl  Cl4  1  0.59797808  0.46267274  0.02821701  1.0
  Cl  Cl5  1  0.05093497  0.58716864  0.78285380  1.0
  Cl  Cl6  1  0.70454418  0.80466225  0.52591548  1.0
  Cl  Cl7  1  0.88346313  0.32995757  0.42484667  1.0
