# generated using pymatgen
data_NaCl
_symmetry_space_group_name_H-M   'P 1'
_cell_length_a   8.23230381
_cell_length_b   3.19303039
_cell_length_c   13.05018524
_cell_angle_alpha   90.00000000
_cell_angle_beta   90.00000000
_cell_angle_gamma   90.00000000
_symmetry_Int_Tables_number   1
_chemical_formula_structural   NaCl
_chemical_formula_sum   'Na4 Cl4'
_cell_volume   343.03712022
_cell_formula_units_Z   4
loop_
 _symmetry_equiv_pos_site_id
 _symmetry_equiv_pos_as_xyz
  1  'x, y, z'
loop_
 _atom_site_type_symbol
 _atom_site_label
 _atom_site_symmetry_multiplicity
 _atom_site_fract_x
 _atom_site_fract_y
 _atom_site_fract_z
 _atom_site_occupancy
  Na  Na0  1  0.99878725  0.54831848  0.55894257  1.0
  Na  Na1  1  0.86196757  0.52409769  0.34355700  1.0
  Na  Na2  1  0.78826058  0.60990033  0.46275905  1.0
  Na  Na3  1  0.97404703  0.48126103  0.74156792  1.0
  Cl  Cl4  1  0.59014245  0.72815360  0.00042295  1.0
  Cl  Cl5  1  0.53966710  0.53540838  0.50188115  1.0
  Cl  Cl6  1  0.02859012  0.86800514  0.32812951  1.0
  Cl  Cl7  1  0.20345716  0.57464376  0.39814644  1.0
