# generated using pymatgen
data_NaCl
_symmetry_space_group_name_H-M   'P 1'
_cell_length_a   4.91024804
_cell_length_b   3.45362416
_cell_length_c   12.96155963
_cell_angle_alpha   90.00000000
_cell_angle_beta   104.42999703
_cell_angle_gamma   90.00000000
_symmetry_Int_Tables_number   1
_chemical_formula_structural   NaCl
_chemical_formula_sum   'Na4 Cl4'
_cell_volume   212.86989131
_cell_formula_units_Z   4
loop_
 _symmetry_equiv_pos_site_id
 _symmetry_equiv_pos_as_xyz
  1  'x, y, z'
loop_
 _atom_site_type_symbol
 _atom_site_label
 _atom_site_symmetry_multiplicity
 _atom_site_fract_x
 _atom_site_fract_y
 _atom_site_fract_z
 _atom_site_occupancy
  Na  Na0  1  0.97649579  0.00000000  0.52709465  1.0
  Na  Na1  1  0.62192290  0.50000000  0.83547056  1.0
  Na  Na2  1  0.47945240  0.50000000  0.03710190  1.0
  Na  Na3  1  0.54570061  0.50000000  0.30294792  1.0
  Cl  Cl4  1  0.59525701  0.00000000  0.11291998  1.0
  Cl  Cl5  1  0.91956592  0.00000000  0.01911144  1.0
  Cl  Cl6  1  0.93083846  0.50000000  0.29581218  1.0
  Cl  Cl7  1  0.72245175  0.50000000  0.68711831  1.0
