# generated using pymatgen
data_NaCl
_symmetry_space_group_name_H-M   'P 1'
_cell_length_a   3.16233661
_cell_length_b   6.18613561
_cell_length_c   14.71092048
_cell_angle_alpha   90.00000000
_cell_angle_beta   90.00000000
_cell_angle_gamma   90.00000000
_symmetry_Int_Tables_number   1
_chemical_formula_structural   NaCl
_chemical_formula_sum   'Na4 Cl4'
_cell_volume   287.78448723
_cell_formula_units_Z   4
loop_
 _symmetry_equiv_pos_site_id
 _symmetry_equiv_pos_as_xyz
  1  'x, y, z'
loop_
 _atom_site_type_symbol
 _atom_site_label
 _atom_site_symmetry_multiplicity
 _atom_site_fract_x
 _atom_site_fract_y
 _atom_site_fract_z
 _atom_site_occupancy
  Na  Na0  1  0.00000000  0.50000000  0.34163817  1.0
  Na  Na1  1  0.50000000  0.00000000  0.73731013  1.0
  Na  Na2  1  0.50000000  0.50000000  0.16103259  1.0
  Na  Na3  1  0.50000000  0.50000000  0.27480018  1.0
  Cl  Cl4  1  0.50000000  0.00000000  0.00111719  1.0
  Cl  Cl5  1  0.50000000  0.00000000  0.20978469  1.0
  Cl  Cl6  1  0.93405463  0.00000000  0.52976866  1.0
  Cl  Cl7  1  0.28528426  0.00000000  0.66149820  1.0
