# generated using pymatgen
data_NaCl
_symmetry_space_group_name_H-M   'P 1'
_cell_length_a   5.96747352
_cell_length_b   4.44246808
_cell_length_c   9.65255803
_cell_angle_alpha   90.00000000
_cell_angle_beta   99.24264367
_cell_angle_gamma   90.00000000
_symmetry_Int_Tables_number   1
_chemical_formula_structural   NaCl
_chemical_formula_sum   'Na4 Cl4'
_cell_volume   252.57006098
_cell_formula_units_Z   4
loop_
 _symmetry_equiv_pos_site_id
 _symmetry_equiv_pos_as_xyz
  1  'x, y, z'
loop_
 _atom_site_type_symbol
 _atom_site_label
 _atom_site_symmetry_multiplicity
 _atom_site_fract_x
 _atom_site_fract_y
 _atom_site_fract_z
 _atom_site_occupancy
  Na  Na0  1  0.74592893  0.00000000  0.44302979  1.0
  Na  Na1  1  0.63655990  0.00000000  0.24822340  1.0
  Na  Na2  1  0.50403255  0.00000000  0.10997775  1.0
  Na  Na3  1  0.65290590  0.50000000  0.36344214  1.0
  Cl  Cl4  1  0.59753453  0.75577289  0.07271306  1.0
  Cl  Cl5  1  0.99880049  0.49164784  0.09180417  1.0
  Cl  Cl6  1  0.96147252  0.28566279  0.17529184  1.0
  Cl  Cl7  1  0.68583183  0.20120394  0.55956942  1.0
