# generated using pymatgen
data_NaCl
_symmetry_space_group_name_H-M   'P 1'
_cell_length_a   3.83074427
_cell_length_b   3.95041576
_cell_length_c   18.77054088
_cell_angle_alpha   90.00000000
_cell_angle_beta   90.00000000
_cell_angle_gamma   90.00000000
_symmetry_Int_Tables_number   1
_chemical_formula_structural   NaCl
_chemical_formula_sum   'Na4 Cl4'
_cell_volume   284.05520587
_cell_formula_units_Z   4
loop_
 _symmetry_equiv_pos_site_id
 _symmetry_equiv_pos_as_xyz
  1  'x, y, z'
loop_
 _atom_site_type_symbol
 _atom_site_label
 _atom_site_symmetry_multiplicity
 _atom_site_fract_x
 _atom_site_fract_y
 _atom_site_fract_z
 _atom_site_occupancy
  Na  Na0  1  0.00000000  0.00000000  0.59371624  1.0
  Na  Na1  1  0.50000000  0.50000000  0.76134420  1.0
  Na  Na2  1  0.00000000  0.00000000  0.10618974  1.0
  Na  Na3  1  0.50000000  0.50000000  0.87673359  1.0
  Cl  Cl4  1  0.59490449  0.82213426  0.05375882  1.0
  Cl  Cl5  1  0.06279058  0.62996777  0.04678303  1.0
  Cl  Cl6  1  0.37999190  0.27316165  0.78810691  1.0
  Cl  Cl7  1  0.75253966  0.08582374  0.25695848  1.0
