# generated using pymatgen
data_NaCl
_symmetry_space_group_name_H-M   'P 1'
_cell_length_a   5.18639113
_cell_length_b   3.62749817
_cell_length_c   19.28919568
_cell_angle_alpha   90.00000000
_cell_angle_beta   109.37590126
_cell_angle_gamma   90.00000000
_symmetry_Int_Tables_number   1
_chemical_formula_structural   NaCl
_chemical_formula_sum   'Na4 Cl4'
_cell_volume   342.34587150
_cell_formula_units_Z   4
loop_
 _symmetry_equiv_pos_site_id
 _symmetry_equiv_pos_as_xyz
  1  'x, y, z'
loop_
 _atom_site_type_symbol
 _atom_site_label
 _atom_site_symmetry_multiplicity
 _atom_site_fract_x
 _atom_site_fract_y
 _atom_site_fract_z
 _atom_site_occupancy
  Na  Na0  1  0.92628499  0.00000000  0.44676325  1.0
  Na  Na1  1  0.33364259  0.50000000  0.84326261  1.0
  Na  Na2  1  0.16326605  0.00000000  0.13458096  1.0
  Na  Na3  1  0.02172613  0.50000000  0.19722403  1.0
  Cl  Cl4  1  0.72227410  0.00000000  0.57613070  1.0
  Cl  Cl5  1  0.40010459  0.50000000  0.10164019  1.0
  Cl  Cl6  1  0.99855283  0.00000000  0.06116750  1.0
  Cl  Cl7  1  0.22789473  0.50000000  0.72754235  1.0
