# generated using pymatgen
data_NaCl
_symmetry_space_group_name_H-M   'P 1'
_cell_length_a   7.59603881
_cell_length_b   3.44182538
_cell_length_c   12.60920614
_cell_angle_alpha   90.00000000
_cell_angle_beta   118.50052291
_cell_angle_gamma   90.00000000
_symmetry_Int_Tables_number   1
_chemical_formula_structural   NaCl
_chemical_formula_sum   'Na4 Cl4'
_cell_volume   289.70774487
_cell_formula_units_Z   4
loop_
 _symmetry_equiv_pos_site_id
 _symmetry_equiv_pos_as_xyz
  1  'x, y, z'
loop_
 _atom_site_type_symbol
 _atom_site_label
 _atom_site_symmetry_multiplicity
 _atom_site_fract_x
 _atom_site_fract_y
 _atom_site_fract_z
 _atom_site_occupancy
  Na  Na0  1  0.75447214  0.63475067  0.61538813  1.0
  Na  Na1  1  0.61561182  0.63373102  0.23497769  1.0
  Na  Na2  1  0.39293081  0.14781383  0.00098053  1.0
  Na  Na3  1  0.47109025  0.96323430  0.83883595  1.0
  Cl  Cl4  1  0.57128473  0.68186309  0.46749555  1.0
  Cl  Cl5  1  0.86168172  0.02057291  0.61549168  1.0
  Cl  Cl6  1  0.92736691  0.37724480  0.29049074  1.0
  Cl  Cl7  1  0.69989896  0.04705264  0.27182739  1.0
