# generated using pymatgen
data_NaCl
_symmetry_space_group_name_H-M   'P 1'
_cell_length_a   6.93107173
_cell_length_b   4.11952064
_cell_length_c   13.97433032
_cell_angle_alpha   90.00000000
_cell_angle_beta   107.92866850
_cell_angle_gamma   90.00000000
_symmetry_Int_Tables_number   1
_chemical_formula_structural   NaCl
_chemical_formula_sum   'Na4 Cl4'
_cell_volume   379.62929071
_cell_formula_units_Z   4
loop_
 _symmetry_equiv_pos_site_id
 _symmetry_equiv_pos_as_xyz
  1  'x, y, z'
loop_
 _atom_site_type_symbol
 _atom_site_label
 _atom_site_symmetry_multiplicity
 _atom_site_fract_x
 _atom_site_fract_y
 _atom_site_fract_z
 _atom_site_occupancy
  Na  Na0  1  0.84182665  0.70354912  0.68131728  1.0
  Na  Na1  1  0.46122155  0.82239595  0.09748483  1.0
  Na  Na2  1  0.23364403  0.07963773  0.09122527  1.0
  Na  Na3  1  0.48934150  0.61182159  0.67351929  1.0
  Cl  Cl4  1  0.63907427  0.75654479  0.00053590  1.0
  Cl  Cl5  1  0.02087649  0.49954021  0.99728168  1.0
  Cl  Cl6  1  0.95069607  0.33155518  0.18838456  1.0
  Cl  Cl7  1  0.38793651  0.35598916  0.37214082  1.0
