# generated using pymatgen
data_NaCl
_symmetry_space_group_name_H-M   'P 1'
_cell_length_a   4.97113423
_cell_length_b   2.00858778
_cell_length_c   16.10036421
_cell_angle_alpha   90.00000000
_cell_angle_beta   90.00000000
_cell_angle_gamma   90.00000000
_symmetry_Int_Tables_number   1
_chemical_formula_structural   NaCl
_chemical_formula_sum   'Na4 Cl4'
_cell_volume   160.76148404
_cell_formula_units_Z   4
loop_
 _symmetry_equiv_pos_site_id
 _symmetry_equiv_pos_as_xyz
  1  'x, y, z'
loop_
 _atom_site_type_symbol
 _atom_site_label
 _atom_site_symmetry_multiplicity
 _atom_site_fract_x
 _atom_site_fract_y
 _atom_site_fract_z
 _atom_site_occupancy
  Na  Na0  1  0.83995458  0.57950568  0.54745396  1.0
  Na  Na1  1  0.68731547  0.36769099  0.36556119  1.0
  Na  Na2  1  0.36995045  0.85252181  0.35416738  1.0
  Na  Na3  1  0.07872394  0.49950191  0.73026474  1.0
  Cl  Cl4  1  0.61205525  0.55814130  0.04979867  1.0
  Cl  Cl5  1  0.54724221  0.10012561  0.62752943  1.0
  Cl  Cl6  1  0.04511891  0.98676504  0.37031446  1.0
  Cl  Cl7  1  0.18455841  0.59048658  0.34007377  1.0
