# generated using pymatgen
data_NaCl
_symmetry_space_group_name_H-M   'P 1'
_cell_length_a   6.95896537
_cell_length_b   3.87896022
_cell_length_c   13.57109540
_cell_angle_alpha   90.00000000
_cell_angle_beta   90.00000000
_cell_angle_gamma   90.00000000
_symmetry_Int_Tables_number   1
_chemical_formula_structural   NaCl
_chemical_formula_sum   'Na4 Cl4'
_cell_volume   366.33204010
_cell_formula_units_Z   4
loop_
 _symmetry_equiv_pos_site_id
 _symmetry_equiv_pos_as_xyz
  1  'x, y, z'
loop_
 _atom_site_type_symbol
 _atom_site_label
 _atom_site_symmetry_multiplicity
 _atom_site_fract_x
 _atom_site_fract_y
 _atom_site_fract_z
 _atom_site_occupancy
  Na  Na0  1  0.75804620  0.74818829  0.45668454  1.0
  Na  Na1  1  0.34302430  0.64208117  0.31266466  1.0
  Na  Na2  1  0.99080814  0.96547581  0.14323733  1.0
  Na  Na3  1  0.89648482  0.12233517  0.74821572  1.0
  Cl  Cl4  1  0.66433282  0.74355793  0.03098190  1.0
  Cl  Cl5  1  0.08121841  0.21499251  0.56172727  1.0
  Cl  Cl6  1  0.46385335  0.49285771  0.25750838  1.0
  Cl  Cl7  1  0.72716260  0.94805807  0.17197083  1.0
