# generated using pymatgen
data_NaCl
_symmetry_space_group_name_H-M   'P 1'
_cell_length_a   6.94009496
_cell_length_b   3.74581572
_cell_length_c   12.22885089
_cell_angle_alpha   90.00000000
_cell_angle_beta   90.00000000
_cell_angle_gamma   90.00000000
_symmetry_Int_Tables_number   1
_chemical_formula_structural   NaCl
_chemical_formula_sum   'Na4 Cl4'
_cell_volume   317.90508183
_cell_formula_units_Z   4
loop_
 _symmetry_equiv_pos_site_id
 _symmetry_equiv_pos_as_xyz
  1  'x, y, z'
loop_
 _atom_site_type_symbol
 _atom_site_label
 _atom_site_symmetry_multiplicity
 _atom_site_fract_x
 _atom_site_fract_y
 _atom_site_fract_z
 _atom_site_occupancy
  Na  Na0  1  0.77870769  0.74931004  0.51180911  1.0
  Na  Na1  1  0.46187484  0.49908908  0.29405117  1.0
  Na  Na2  1  0.03313442  0.49960585  0.07960815  1.0
  Na  Na3  1  0.93350112  0.60956691  0.76213114  1.0
  Cl  Cl4  1  0.64946212  0.68713302  0.09701295  1.0
  Cl  Cl5  1  0.01823534  0.13755683  0.58779388  1.0
  Cl  Cl6  1  0.46925504  0.01367724  0.35110314  1.0
  Cl  Cl7  1  0.72362582  0.37836913  0.17129501  1.0
