# generated using pymatgen
data_NaCl
_symmetry_space_group_name_H-M   'P 1'
_cell_length_a   6.79827444
_cell_length_b   3.00111798
_cell_length_c   12.98117897
_cell_angle_alpha   90.00000000
_cell_angle_beta   122.11963954
_cell_angle_gamma   90.00000000
_symmetry_Int_Tables_number   1
_chemical_formula_structural   NaCl
_chemical_formula_sum   'Na4 Cl4'
_cell_volume   224.30987885
_cell_formula_units_Z   4
loop_
 _symmetry_equiv_pos_site_id
 _symmetry_equiv_pos_as_xyz
  1  'x, y, z'
loop_
 _atom_site_type_symbol
 _atom_site_label
 _atom_site_symmetry_multiplicity
 _atom_site_fract_x
 _atom_site_fract_y
 _atom_site_fract_z
 _atom_site_occupancy
  Na  Na0  1  0.82151650  0.70792142  0.50312027  1.0
  Na  Na1  1  0.38848617  0.98717165  0.51282875  1.0
  Na  Na2  1  0.45280310  0.05099424  0.12538119  1.0
  Na  Na3  1  0.41334468  0.53732307  0.65390430  1.0
  Cl  Cl4  1  0.49289189  0.73959210  0.00004647  1.0
  Cl  Cl5  1  0.05798482  0.24260917  0.91495968  1.0
  Cl  Cl6  1  0.91851188  0.52352766  0.30505605  1.0
  Cl  Cl7  1  0.26076710  0.39849346  0.42400809  1.0
