# generated using pymatgen
data_NaCl
_symmetry_space_group_name_H-M   'P 1'
_cell_length_a   5.77978316
_cell_length_b   3.23902775
_cell_length_c   16.74041216
_cell_angle_alpha   90.00000000
_cell_angle_beta   105.86789824
_cell_angle_gamma   90.00000000
_symmetry_Int_Tables_number   1
_chemical_formula_structural   NaCl
_chemical_formula_sum   'Na4 Cl4'
_cell_volume   301.45318101
_cell_formula_units_Z   4
loop_
 _symmetry_equiv_pos_site_id
 _symmetry_equiv_pos_as_xyz
  1  'x, y, z'
loop_
 _atom_site_type_symbol
 _atom_site_label
 _atom_site_symmetry_multiplicity
 _atom_site_fract_x
 _atom_site_fract_y
 _atom_site_fract_z
 _atom_site_occupancy
  Na  Na0  1  0.83831358  0.00000000  0.46979146  1.0
  Na  Na1  1  0.00594788  0.50000000  0.79222816  1.0
  Na  Na2  1  0.74607173  0.00000000  0.13567666  1.0
  Na  Na3  1  0.02455887  0.50000000  0.31901869  1.0
  Cl  Cl4  1  0.74675176  0.63625814  0.09275814  1.0
  Cl  Cl5  1  0.90315072  0.06992341  0.04414908  1.0
  Cl  Cl6  1  0.41686684  0.90626308  0.26143976  1.0
  Cl  Cl7  1  0.22346424  0.67122426  0.70774924  1.0
