# generated using pymatgen
data_NaCl
_symmetry_space_group_name_H-M   'P 1'
_cell_length_a   4.44926075
_cell_length_b   2.95161169
_cell_length_c   17.09643701
_cell_angle_alpha   90.00000000
_cell_angle_beta   110.51685927
_cell_angle_gamma   90.00000000
_symmetry_Int_Tables_number   1
_chemical_formula_structural   NaCl
_chemical_formula_sum   'Na4 Cl4'
_cell_volume   210.27736000
_cell_formula_units_Z   4
loop_
 _symmetry_equiv_pos_site_id
 _symmetry_equiv_pos_as_xyz
  1  'x, y, z'
loop_
 _atom_site_type_symbol
 _atom_site_label
 _atom_site_symmetry_multiplicity
 _atom_site_fract_x
 _atom_site_fract_y
 _atom_site_fract_z
 _atom_site_occupancy
  Na  Na0  1  0.78029184  0.00000000  0.50208262  1.0
  Na  Na1  1  0.66834008  0.00000000  0.84376376  1.0
  Na  Na2  1  0.63618859  0.50000000  0.09059446  1.0
  Na  Na3  1  0.44866484  0.50000000  0.19347789  1.0
  Cl  Cl4  1  0.67168201  0.00000000  0.11263002  1.0
  Cl  Cl5  1  0.99946254  0.00000000  0.07755512  1.0
  Cl  Cl6  1  0.94263239  0.55379531  0.15998722  1.0
  Cl  Cl7  1  0.76878763  0.16294489  0.56648001  1.0
