# generated using pymatgen
data_NaCl
_symmetry_space_group_name_H-M   'P 1'
_cell_length_a   7.48047303
_cell_length_b   3.67742479
_cell_length_c   13.32152757
_cell_angle_alpha   90.00000000
_cell_angle_beta   90.00000000
_cell_angle_gamma   90.00000000
_symmetry_Int_Tables_number   1
_chemical_formula_structural   NaCl
_chemical_formula_sum   'Na4 Cl4'
_cell_volume   366.46026286
_cell_formula_units_Z   4
loop_
 _symmetry_equiv_pos_site_id
 _symmetry_equiv_pos_as_xyz
  1  'x, y, z'
loop_
 _atom_site_type_symbol
 _atom_site_label
 _atom_site_symmetry_multiplicity
 _atom_site_fract_x
 _atom_site_fract_y
 _atom_site_fract_z
 _atom_site_occupancy
  Na  Na0  1  0.80052658  0.68476386  0.45337946  1.0
  Na  Na1  1  0.23806269  0.65047629  0.40993716  1.0
  Na  Na2  1  0.01138765  0.96166897  0.06180611  1.0
  Na  Na3  1  0.24731626  0.06428179  0.74827758  1.0
  Cl  Cl4  1  0.72313363  0.70703344  0.05040033  1.0
  Cl  Cl5  1  0.04172668  0.15394407  0.61782062  1.0
  Cl  Cl6  1  0.42279342  0.65461704  0.42563295  1.0
  Cl  Cl7  1  0.75482583  0.84190626  0.15106165  1.0
