# generated using pymatgen
data_NaCl
_symmetry_space_group_name_H-M   'P 1'
_cell_length_a   6.12285297
_cell_length_b   2.01992796
_cell_length_c   17.00237219
_cell_angle_alpha   90.00000000
_cell_angle_beta   90.56261895
_cell_angle_gamma   90.00000000
_symmetry_Int_Tables_number   1
_chemical_formula_structural   NaCl
_chemical_formula_sum   'Na4 Cl4'
_cell_volume   210.27047311
_cell_formula_units_Z   4
loop_
 _symmetry_equiv_pos_site_id
 _symmetry_equiv_pos_as_xyz
  1  'x, y, z'
loop_
 _atom_site_type_symbol
 _atom_site_label
 _atom_site_symmetry_multiplicity
 _atom_site_fract_x
 _atom_site_fract_y
 _atom_site_fract_z
 _atom_site_occupancy
  Na  Na0  1  0.90706796  0.00000000  0.37827982  1.0
  Na  Na1  1  0.80532022  0.00000000  0.70313120  1.0
  Na  Na2  1  0.64788056  0.50000000  0.09298418  1.0
  Na  Na3  1  0.70583714  0.50000000  0.19569994  1.0
  Cl  Cl4  1  0.55630013  0.00000000  0.03427400  1.0
  Cl  Cl5  1  0.99947000  0.00000000  0.09170356  1.0
  Cl  Cl6  1  0.88272413  0.50000000  0.28234634  1.0
  Cl  Cl7  1  0.69340348  0.50000000  0.63895201  1.0
