# generated using pymatgen
data_NaCl
_symmetry_space_group_name_H-M   'P 1'
_cell_length_a   7.37566660
_cell_length_b   9.33128185
_cell_length_c   5.84968087
_cell_angle_alpha   90.00000000
_cell_angle_beta   90.00000000
_cell_angle_gamma   90.00000000
_symmetry_Int_Tables_number   1
_chemical_formula_structural   NaCl
_chemical_formula_sum   'Na4 Cl4'
_cell_volume   402.60091574
_cell_formula_units_Z   4
loop_
 _symmetry_equiv_pos_site_id
 _symmetry_equiv_pos_as_xyz
  1  'x, y, z'
loop_
 _atom_site_type_symbol
 _atom_site_label
 _atom_site_symmetry_multiplicity
 _atom_site_fract_x
 _atom_site_fract_y
 _atom_site_fract_z
 _atom_site_occupancy
  Na  Na0  1  0.00000000  0.63889548  0.96877617  1.0
  Na  Na1  1  0.50000000  0.43073862  0.33563804  1.0
  Na  Na2  1  0.00000000  0.25716673  0.16867395  1.0
  Na  Na3  1  0.50000000  0.03455433  0.97177756  1.0
  Cl  Cl4  1  0.55375585  0.71405235  0.00045850  1.0
  Cl  Cl5  1  0.77763099  0.07481923  0.93805159  1.0
  Cl  Cl6  1  0.49921400  0.91753674  0.01106070  1.0
  Cl  Cl7  1  0.14782551  0.96227726  0.86369681  1.0
