# generated using pymatgen
data_NaCl
_symmetry_space_group_name_H-M   'P 1'
_cell_length_a   4.74185578
_cell_length_b   2.54903740
_cell_length_c   16.41187063
_cell_angle_alpha   90.00000000
_cell_angle_beta   100.54540361
_cell_angle_gamma   90.00000000
_symmetry_Int_Tables_number   1
_chemical_formula_structural   NaCl
_chemical_formula_sum   'Na4 Cl4'
_cell_volume   195.02254975
_cell_formula_units_Z   4
loop_
 _symmetry_equiv_pos_site_id
 _symmetry_equiv_pos_as_xyz
  1  'x, y, z'
loop_
 _atom_site_type_symbol
 _atom_site_label
 _atom_site_symmetry_multiplicity
 _atom_site_fract_x
 _atom_site_fract_y
 _atom_site_fract_z
 _atom_site_occupancy
  Na  Na0  1  0.87028247  0.00000000  0.39627401  1.0
  Na  Na1  1  0.48696594  0.00000000  0.78233288  1.0
  Na  Na2  1  0.70093900  0.50000000  0.17132176  1.0
  Na  Na3  1  0.45244280  0.50000000  0.33477025  1.0
  Cl  Cl4  1  0.66196000  0.50000000  0.06186003  1.0
  Cl  Cl5  1  0.89416700  0.50000000  0.06416511  1.0
  Cl  Cl6  1  0.95308613  0.50000000  0.32887236  1.0
  Cl  Cl7  1  0.74633676  0.50000000  0.72107127  1.0
