# generated using pymatgen
data_NaCl
_symmetry_space_group_name_H-M   'P 1'
_cell_length_a   4.54077580
_cell_length_b   2.94009944
_cell_length_c   15.90260161
_cell_angle_alpha   90.00000000
_cell_angle_beta   90.00000000
_cell_angle_gamma   90.00000000
_symmetry_Int_Tables_number   1
_chemical_formula_structural   NaCl
_chemical_formula_sum   'Na4 Cl4'
_cell_volume   212.30501731
_cell_formula_units_Z   4
loop_
 _symmetry_equiv_pos_site_id
 _symmetry_equiv_pos_as_xyz
  1  'x, y, z'
loop_
 _atom_site_type_symbol
 _atom_site_label
 _atom_site_symmetry_multiplicity
 _atom_site_fract_x
 _atom_site_fract_y
 _atom_site_fract_z
 _atom_site_occupancy
  Na  Na0  1  0.00000000  0.53377766  0.47313794  1.0
  Na  Na1  1  0.00000000  0.58027630  0.30566700  1.0
  Na  Na2  1  0.50000000  0.54330170  0.13365715  1.0
  Na  Na3  1  0.50000000  0.37301910  0.73689447  1.0
  Cl  Cl4  1  0.00000000  0.74557513  0.01808742  1.0
  Cl  Cl5  1  0.00000000  0.26911982  0.54592004  1.0
  Cl  Cl6  1  0.50000000  0.01004713  0.25256747  1.0
  Cl  Cl7  1  0.50000000  0.64750173  0.00243757  1.0
