# generated using pymatgen
data_NaCl
_symmetry_space_group_name_H-M   'P 1'
_cell_length_a   5.85666814
_cell_length_b   5.46482410
_cell_length_c   12.44582813
_cell_angle_alpha   90.00000000
_cell_angle_beta   113.24362581
_cell_angle_gamma   90.00000000
_symmetry_Int_Tables_number   1
_chemical_formula_structural   NaCl
_chemical_formula_sum   'Na4 Cl4'
_cell_volume   366.00598700
_cell_formula_units_Z   4
loop_
 _symmetry_equiv_pos_site_id
 _symmetry_equiv_pos_as_xyz
  1  'x, y, z'
loop_
 _atom_site_type_symbol
 _atom_site_label
 _atom_site_symmetry_multiplicity
 _atom_site_fract_x
 _atom_site_fract_y
 _atom_site_fract_z
 _atom_site_occupancy
  Na  Na0  1  0.79492132  0.69504685  0.50433045  1.0
  Na  Na1  1  0.43066413  0.84995343  0.16151959  1.0
  Na  Na2  1  0.47325033  0.11466203  0.11409421  1.0
  Na  Na3  1  0.46435503  0.64847500  0.73816199  1.0
  Cl  Cl4  1  0.62891708  0.68274711  0.08997828  1.0
  Cl  Cl5  1  0.15093415  0.25057611  0.90773918  1.0
  Cl  Cl6  1  0.90194364  0.49221977  0.27444571  1.0
  Cl  Cl7  1  0.22719264  0.33440747  0.41588972  1.0
