# generated using pymatgen
data_NaCl
_symmetry_space_group_name_H-M   'P 1'
_cell_length_a   5.40334624
_cell_length_b   5.40334624
_cell_length_c   5.40334624
_cell_angle_alpha   90.00000000
_cell_angle_beta   90.00000000
_cell_angle_gamma   90.00000000
_symmetry_Int_Tables_number   1
_chemical_formula_structural   NaCl
_chemical_formula_sum   'Na4 Cl4'
_cell_volume   157.75691051
_cell_formula_units_Z   4
loop_
 _symmetry_equiv_pos_site_id
 _symmetry_equiv_pos_as_xyz
  1  'x, y, z'
loop_
 _atom_site_type_symbol
 _atom_site_label
 _atom_site_symmetry_multiplicity
 _atom_site_fract_x
 _atom_site_fract_y
 _atom_site_fract_z
 _atom_site_occupancy
  Na  Na0  1  0.79547027  0.79547027  0.79547027  1.0
  Na  Na1  1  0.85016102  0.35016102  0.14983898  1.0
  Na  Na2  1  0.33713988  0.16286012  0.83713988  1.0
  Na  Na3  1  0.01591533  0.98408467  0.48408467  1.0
  Cl  Cl4  1  0.60697426  0.60697426  0.60697426  1.0
  Cl  Cl5  1  0.50076838  0.00076838  0.49923162  1.0
  Cl  Cl6  1  0.05083509  0.44916491  0.55083509  1.0
  Cl  Cl7  1  0.16426111  0.83573889  0.33573889  1.0
