# generated using pymatgen
data_NaCl
_symmetry_space_group_name_H-M   'P 1'
_cell_length_a   5.71416838
_cell_length_b   5.71416838
_cell_length_c   11.27584748
_cell_angle_alpha   90.00000000
_cell_angle_beta   90.00000000
_cell_angle_gamma   90.00000000
_symmetry_Int_Tables_number   1
_chemical_formula_structural   NaCl
_chemical_formula_sum   'Na4 Cl4'
_cell_volume   368.17581778
_cell_formula_units_Z   4
loop_
 _symmetry_equiv_pos_site_id
 _symmetry_equiv_pos_as_xyz
  1  'x, y, z'
loop_
 _atom_site_type_symbol
 _atom_site_label
 _atom_site_symmetry_multiplicity
 _atom_site_fract_x
 _atom_site_fract_y
 _atom_site_fract_z
 _atom_site_occupancy
  Na  Na0  1  0.73457738  0.78535727  0.48405812  1.0
  Na  Na1  1  0.33132430  0.52951151  0.29657431  1.0
  Na  Na2  1  0.96814154  0.49016776  0.83257334  1.0
  Na  Na3  1  0.10970999  0.48529184  0.50724789  1.0
  Cl  Cl4  1  0.62352323  0.76244079  0.00229571  1.0
  Cl  Cl5  1  0.01317946  0.18884378  0.55103712  1.0
  Cl  Cl6  1  0.41214443  0.94035177  0.02704439  1.0
  Cl  Cl7  1  0.91019997  0.22766835  0.79950652  1.0
