# generated using pymatgen
data_NaCl
_symmetry_space_group_name_H-M   'P 1'
_cell_length_a   7.09766298
_cell_length_b   5.25734045
_cell_length_c   4.13922902
_cell_angle_alpha   90.00000000
_cell_angle_beta   104.50337569
_cell_angle_gamma   90.00000000
_symmetry_Int_Tables_number   1
_chemical_formula_structural   NaCl
_chemical_formula_sum   'Na4 Cl4'
_cell_volume   149.53260691
_cell_formula_units_Z   4
loop_
 _symmetry_equiv_pos_site_id
 _symmetry_equiv_pos_as_xyz
  1  'x, y, z'
loop_
 _atom_site_type_symbol
 _atom_site_label
 _atom_site_symmetry_multiplicity
 _atom_site_fract_x
 _atom_site_fract_y
 _atom_site_fract_z
 _atom_site_occupancy
  Na  Na0  1  0.84065327  0.74548281  0.52740800  1.0
  Na  Na1  1  0.37249969  0.06438260  0.22489004  1.0
  Na  Na2  1  0.24007862  0.67248253  0.05843033  1.0
  Na  Na3  1  0.15124452  0.61722570  0.51828642  1.0
  Cl  Cl4  1  0.45977718  0.78453960  0.09740315  1.0
  Cl  Cl5  1  0.13304975  0.06702392  0.34198212  1.0
  Cl  Cl6  1  0.92714566  0.36018727  0.38120695  1.0
  Cl  Cl7  1  0.27192459  0.41580127  0.38104351  1.0
