# generated using pymatgen
data_NaCl
_symmetry_space_group_name_H-M   'P 1'
_cell_length_a   6.95770392
_cell_length_b   3.46678091
_cell_length_c   15.49515878
_cell_angle_alpha   90.00000000
_cell_angle_beta   103.15468655
_cell_angle_gamma   90.00000000
_symmetry_Int_Tables_number   1
_chemical_formula_structural   NaCl
_chemical_formula_sum   'Na4 Cl4'
_cell_volume   363.94850704
_cell_formula_units_Z   4
loop_
 _symmetry_equiv_pos_site_id
 _symmetry_equiv_pos_as_xyz
  1  'x, y, z'
loop_
 _atom_site_type_symbol
 _atom_site_label
 _atom_site_symmetry_multiplicity
 _atom_site_fract_x
 _atom_site_fract_y
 _atom_site_fract_z
 _atom_site_occupancy
  Na  Na0  1  0.84871761  0.63764686  0.48701956  1.0
  Na  Na1  1  0.48385408  0.06959115  0.22882923  1.0
  Na  Na2  1  0.63787758  0.09581516  0.14363858  1.0
  Na  Na3  1  0.56760523  0.56871841  0.71309470  1.0
  Cl  Cl4  1  0.64648253  0.68615810  0.07788408  1.0
  Cl  Cl5  1  0.07208659  0.39268763  0.95890188  1.0
  Cl  Cl6  1  0.98354521  0.43214857  0.27533877  1.0
  Cl  Cl7  1  0.28706640  0.31981273  0.29949401  1.0
