# generated using pymatgen
data_NaCl
_symmetry_space_group_name_H-M   'P 1'
_cell_length_a   4.55407441
_cell_length_b   4.55407441
_cell_length_c   4.55407441
_cell_angle_alpha   90.00000000
_cell_angle_beta   90.00000000
_cell_angle_gamma   90.00000000
_symmetry_Int_Tables_number   1
_chemical_formula_structural   NaCl
_chemical_formula_sum   'Na4 Cl4'
_cell_volume   94.44965309
_cell_formula_units_Z   4
loop_
 _symmetry_equiv_pos_site_id
 _symmetry_equiv_pos_as_xyz
  1  'x, y, z'
loop_
 _atom_site_type_symbol
 _atom_site_label
 _atom_site_symmetry_multiplicity
 _atom_site_fract_x
 _atom_site_fract_y
 _atom_site_fract_z
 _atom_site_occupancy
  Na  Na0  1  0.91769464  0.91769464  0.91769464  1.0
  Na  Na1  1  0.94014249  0.44014249  0.05985751  1.0
  Na  Na2  1  0.35063083  0.14936917  0.85063083  1.0
  Na  Na3  1  0.64247133  0.35752867  0.85752867  1.0
  Cl  Cl4  1  0.60255768  0.60255768  0.60255768  1.0
  Cl  Cl5  1  0.52722914  0.02722914  0.47277086  1.0
  Cl  Cl6  1  0.06561870  0.43438130  0.56561870  1.0
  Cl  Cl7  1  0.34287111  0.65712889  0.15712889  1.0
