# generated using pymatgen
data_NaCl
_symmetry_space_group_name_H-M   'P 1'
_cell_length_a   7.53285472
_cell_length_b   3.83900312
_cell_length_c   14.61105592
_cell_angle_alpha   90.00000000
_cell_angle_beta   104.01858868
_cell_angle_gamma   90.00000000
_symmetry_Int_Tables_number   1
_chemical_formula_structural   NaCl
_chemical_formula_sum   'Na4 Cl4'
_cell_volume   409.94785993
_cell_formula_units_Z   4
loop_
 _symmetry_equiv_pos_site_id
 _symmetry_equiv_pos_as_xyz
  1  'x, y, z'
loop_
 _atom_site_type_symbol
 _atom_site_label
 _atom_site_symmetry_multiplicity
 _atom_site_fract_x
 _atom_site_fract_y
 _atom_site_fract_z
 _atom_site_occupancy
  Na  Na0  1  0.85864957  0.00000000  0.51556857  1.0
  Na  Na1  1  0.03914370  0.50000000  0.77157156  1.0
  Na  Na2  1  0.50665929  0.00000000  0.07286858  1.0
  Na  Na3  1  0.00684655  0.50000000  0.35422281  1.0
  Cl  Cl4  1  0.61141391  0.79809458  0.07389604  1.0
  Cl  Cl5  1  0.99987914  0.09245513  0.02083998  1.0
  Cl  Cl6  1  0.41753925  0.97259122  0.30212727  1.0
  Cl  Cl7  1  0.26354951  0.60078590  0.58432627  1.0
