# generated using pymatgen
data_NaCl
_symmetry_space_group_name_H-M   'P 1'
_cell_length_a   4.48206408
_cell_length_b   11.16036902
_cell_length_c   6.70559266
_cell_angle_alpha   90.00000000
_cell_angle_beta   87.08963079
_cell_angle_gamma   90.00000000
_symmetry_Int_Tables_number   1
_chemical_formula_structural   NaCl
_chemical_formula_sum   'Na4 Cl4'
_cell_volume   334.99109551
_cell_formula_units_Z   4
loop_
 _symmetry_equiv_pos_site_id
 _symmetry_equiv_pos_as_xyz
  1  'x, y, z'
loop_
 _atom_site_type_symbol
 _atom_site_label
 _atom_site_symmetry_multiplicity
 _atom_site_fract_x
 _atom_site_fract_y
 _atom_site_fract_z
 _atom_site_occupancy
  Na  Na0  1  0.74115282  0.71306579  0.93352692  1.0
  Na  Na1  1  0.51794758  0.38223101  0.95182712  1.0
  Na  Na2  1  0.45574857  0.84681844  0.18350755  1.0
  Na  Na3  1  0.22608828  0.87375919  0.72235396  1.0
  Cl  Cl4  1  0.53485291  0.48570929  0.23280220  1.0
  Cl  Cl5  1  0.75260095  0.59701413  0.55170955  1.0
  Cl  Cl6  1  0.30252831  0.70841358  0.45325756  1.0
  Cl  Cl7  1  0.36654946  0.60917808  0.78493400  1.0
