# generated using pymatgen
data_NaCl
_symmetry_space_group_name_H-M   'P 1'
_cell_length_a   4.91590532
_cell_length_b   4.91590532
_cell_length_c   6.17191728
_cell_angle_alpha   90.00000000
_cell_angle_beta   90.00000000
_cell_angle_gamma   90.00000000
_symmetry_Int_Tables_number   1
_chemical_formula_structural   NaCl
_chemical_formula_sum   'Na4 Cl4'
_cell_volume   149.15132519
_cell_formula_units_Z   4
loop_
 _symmetry_equiv_pos_site_id
 _symmetry_equiv_pos_as_xyz
  1  'x, y, z'
loop_
 _atom_site_type_symbol
 _atom_site_label
 _atom_site_symmetry_multiplicity
 _atom_site_fract_x
 _atom_site_fract_y
 _atom_site_fract_z
 _atom_site_occupancy
  Na  Na0  1  0.63151488  0.46234189  0.83868094  1.0
  Na  Na1  1  0.22812771  0.33236166  0.84238858  1.0
  Na  Na2  1  0.71429716  0.92461314  0.05308898  1.0
  Na  Na3  1  0.47991000  0.13219596  0.37604282  1.0
  Cl  Cl4  1  0.21501361  0.45317337  0.17047984  1.0
  Cl  Cl5  1  0.41655039  0.51457324  0.07416894  1.0
  Cl  Cl6  1  0.88888125  0.68623373  0.37998736  1.0
  Cl  Cl7  1  0.55109048  0.74385109  0.19848006  1.0
