# generated using pymatgen
data_NaCl
_symmetry_space_group_name_H-M   'P 1'
_cell_length_a   5.43398148
_cell_length_b   5.43398148
_cell_length_c   12.75061664
_cell_angle_alpha   90.00000000
_cell_angle_beta   90.00000000
_cell_angle_gamma   90.00000000
_symmetry_Int_Tables_number   1
_chemical_formula_structural   NaCl
_chemical_formula_sum   'Na4 Cl4'
_cell_volume   376.50218098
_cell_formula_units_Z   4
loop_
 _symmetry_equiv_pos_site_id
 _symmetry_equiv_pos_as_xyz
  1  'x, y, z'
loop_
 _atom_site_type_symbol
 _atom_site_label
 _atom_site_symmetry_multiplicity
 _atom_site_fract_x
 _atom_site_fract_y
 _atom_site_fract_z
 _atom_site_occupancy
  Na  Na0  1  0.85007945  0.74534936  0.50164896  1.0
  Na  Na1  1  0.33766493  0.49307879  0.31327130  1.0
  Na  Na2  1  0.89615567  0.45842463  0.78428998  1.0
  Na  Na3  1  0.03596245  0.54197287  0.49795878  1.0
  Cl  Cl4  1  0.65983962  0.63679670  0.06160352  1.0
  Cl  Cl5  1  0.03408492  0.16037914  0.53584722  1.0
  Cl  Cl6  1  0.56735511  0.91414403  0.00326340  1.0
  Cl  Cl7  1  0.85706205  0.33701918  0.93047335  1.0
