# generated using pymatgen
data_NaCl
_symmetry_space_group_name_H-M   'P 1'
_cell_length_a   9.84695927
_cell_length_b   9.84695927
_cell_length_c   4.07831273
_cell_angle_alpha   90.00000000
_cell_angle_beta   90.00000000
_cell_angle_gamma   90.00000000
_symmetry_Int_Tables_number   1
_chemical_formula_structural   NaCl
_chemical_formula_sum   'Na4 Cl4'
_cell_volume   395.44383391
_cell_formula_units_Z   4
loop_
 _symmetry_equiv_pos_site_id
 _symmetry_equiv_pos_as_xyz
  1  'x, y, z'
loop_
 _atom_site_type_symbol
 _atom_site_label
 _atom_site_symmetry_multiplicity
 _atom_site_fract_x
 _atom_site_fract_y
 _atom_site_fract_z
 _atom_site_occupancy
  Na  Na0  1  0.49875005  0.66513809  0.98150538  1.0
  Na  Na1  1  0.51871891  0.23488926  0.33528860  1.0
  Na  Na2  1  0.70763763  0.85969175  0.82210119  1.0
  Na  Na3  1  0.65568000  0.12927309  0.11571786  1.0
  Cl  Cl4  1  0.64696002  0.57123548  0.05960626  1.0
  Cl  Cl5  1  0.09904227  0.52950773  0.84330783  1.0
  Cl  Cl6  1  0.24001609  0.98159694  0.05286279  1.0
  Cl  Cl7  1  0.36126014  0.11742995  0.07440616  1.0
