# generated using pymatgen
data_NaCl
_symmetry_space_group_name_H-M   'P 1'
_cell_length_a   4.28753406
_cell_length_b   4.28753406
_cell_length_c   15.88313098
_cell_angle_alpha   90.00000000
_cell_angle_beta   90.00000000
_cell_angle_gamma   90.00000000
_symmetry_Int_Tables_number   1
_chemical_formula_structural   NaCl
_chemical_formula_sum   'Na4 Cl4'
_cell_volume   291.97877590
_cell_formula_units_Z   4
loop_
 _symmetry_equiv_pos_site_id
 _symmetry_equiv_pos_as_xyz
  1  'x, y, z'
loop_
 _atom_site_type_symbol
 _atom_site_label
 _atom_site_symmetry_multiplicity
 _atom_site_fract_x
 _atom_site_fract_y
 _atom_site_fract_z
 _atom_site_occupancy
  Na  Na0  1  0.00000000  0.00000000  0.50000000  1.0
  Na  Na1  1  0.50000000  0.50000000  0.50000000  1.0
  Na  Na2  1  0.50000000  0.50000000  0.05310756  1.0
  Na  Na3  1  0.50000000  0.50000000  0.72845712  1.0
  Cl  Cl4  1  0.56817369  0.85108262  0.01956297  1.0
  Cl  Cl5  1  0.06784506  0.09264977  0.05001257  1.0
  Cl  Cl6  1  0.32824718  0.00091903  0.84608592  1.0
  Cl  Cl7  1  0.10835078  0.72399323  0.34828481  1.0
