# generated using pymatgen
data_NaCl
_symmetry_space_group_name_H-M   'P 1'
_cell_length_a   6.85390538
_cell_length_b   2.07528720
_cell_length_c   12.59003894
_cell_angle_alpha   90.00000000
_cell_angle_beta   90.00000000
_cell_angle_gamma   90.00000000
_symmetry_Int_Tables_number   1
_chemical_formula_structural   NaCl
_chemical_formula_sum   'Na4 Cl4'
_cell_volume   179.07847418
_cell_formula_units_Z   4
loop_
 _symmetry_equiv_pos_site_id
 _symmetry_equiv_pos_as_xyz
  1  'x, y, z'
loop_
 _atom_site_type_symbol
 _atom_site_label
 _atom_site_symmetry_multiplicity
 _atom_site_fract_x
 _atom_site_fract_y
 _atom_site_fract_z
 _atom_site_occupancy
  Na  Na0  1  0.00000000  0.00000000  0.55754561  1.0
  Na  Na1  1  0.50000000  0.00000000  0.84549513  1.0
  Na  Na2  1  0.00000000  0.50000000  0.63798826  1.0
  Na  Na3  1  0.50000000  0.50000000  0.08660476  1.0
  Cl  Cl4  1  0.25000000  0.83168303  0.04787656  1.0
  Cl  Cl5  1  0.75000000  0.13220714  0.01880473  1.0
  Cl  Cl6  1  0.25000000  0.98437266  0.79450781  1.0
  Cl  Cl7  1  0.75000000  0.50071671  0.14888803  1.0
