# generated using pymatgen
data_NaCl
_symmetry_space_group_name_H-M   'P 1'
_cell_length_a   5.63264617
_cell_length_b   3.02389918
_cell_length_c   17.19108573
_cell_angle_alpha   90.00000000
_cell_angle_beta   121.72658157
_cell_angle_gamma   90.00000000
_symmetry_Int_Tables_number   1
_chemical_formula_structural   NaCl
_chemical_formula_sum   'Na4 Cl4'
_cell_volume   249.05297391
_cell_formula_units_Z   4
loop_
 _symmetry_equiv_pos_site_id
 _symmetry_equiv_pos_as_xyz
  1  'x, y, z'
loop_
 _atom_site_type_symbol
 _atom_site_label
 _atom_site_symmetry_multiplicity
 _atom_site_fract_x
 _atom_site_fract_y
 _atom_site_fract_z
 _atom_site_occupancy
  Na  Na0  1  0.85847561  0.85069035  0.33739651  1.0
  Na  Na1  1  0.43937389  0.61285818  0.26975346  1.0
  Na  Na2  1  0.54191438  0.09534573  0.12384160  1.0
  Na  Na3  1  0.59616443  0.92872115  0.79176190  1.0
  Cl  Cl4  1  0.63248851  0.66282283  0.07777680  1.0
  Cl  Cl5  1  0.99985633  0.01439279  0.51863237  1.0
  Cl  Cl6  1  0.96401273  0.52490365  0.46598054  1.0
  Cl  Cl7  1  0.72310726  0.18780553  0.21981275  1.0
