# generated using pymatgen
data_NaCl
_symmetry_space_group_name_H-M   'P 1'
_cell_length_a   6.65281770
_cell_length_b   2.48070695
_cell_length_c   13.48792199
_cell_angle_alpha   90.00000000
_cell_angle_beta   114.99485459
_cell_angle_gamma   90.00000000
_symmetry_Int_Tables_number   1
_chemical_formula_structural   NaCl
_chemical_formula_sum   'Na4 Cl4'
_cell_volume   201.75301243
_cell_formula_units_Z   4
loop_
 _symmetry_equiv_pos_site_id
 _symmetry_equiv_pos_as_xyz
  1  'x, y, z'
loop_
 _atom_site_type_symbol
 _atom_site_label
 _atom_site_symmetry_multiplicity
 _atom_site_fract_x
 _atom_site_fract_y
 _atom_site_fract_z
 _atom_site_occupancy
  Na  Na0  1  0.86108445  0.62832882  0.49974945  1.0
  Na  Na1  1  0.55270152  0.52707229  0.37018817  1.0
  Na  Na2  1  0.94245282  0.54978460  0.12730241  1.0
  Na  Na3  1  0.98099578  0.39897048  0.80713141  1.0
  Cl  Cl4  1  0.59967803  0.79689936  0.05367997  1.0
  Cl  Cl5  1  0.95416395  0.11239243  0.50028416  1.0
  Cl  Cl6  1  0.45384972  0.90136723  0.33277128  1.0
  Cl  Cl7  1  0.30211645  0.60512155  0.13428866  1.0
