# generated using pymatgen
data_NaCl
_symmetry_space_group_name_H-M   'P 1'
_cell_length_a   2.54966147
_cell_length_b   2.54966147
_cell_length_c   14.81614438
_cell_angle_alpha   90.00000000
_cell_angle_beta   90.00000000
_cell_angle_gamma   90.00000000
_symmetry_Int_Tables_number   1
_chemical_formula_structural   NaCl
_chemical_formula_sum   'Na4 Cl4'
_cell_volume   96.31640041
_cell_formula_units_Z   4
loop_
 _symmetry_equiv_pos_site_id
 _symmetry_equiv_pos_as_xyz
  1  'x, y, z'
loop_
 _atom_site_type_symbol
 _atom_site_label
 _atom_site_symmetry_multiplicity
 _atom_site_fract_x
 _atom_site_fract_y
 _atom_site_fract_z
 _atom_site_occupancy
  Na  Na0  1  0.75707232  0.57127306  0.56238723  1.0
  Na  Na1  1  0.56878980  0.18719967  0.80045675  1.0
  Na  Na2  1  0.81250114  0.43251397  0.65461289  1.0
  Na  Na3  1  0.40878983  0.69760143  0.85285639  1.0
  Cl  Cl4  1  0.51037067  0.73485473  0.49642111  1.0
  Cl  Cl5  1  0.96294116  0.10647777  0.15618691  1.0
  Cl  Cl6  1  0.89014792  0.77620103  0.46638417  1.0
  Cl  Cl7  1  0.55121098  0.54076530  0.34507636  1.0
