# generated using pymatgen
data_NaCl
_symmetry_space_group_name_H-M   'P 1'
_cell_length_a   4.09687252
_cell_length_b   4.09687252
_cell_length_c   15.75569096
_cell_angle_alpha   90.00000000
_cell_angle_beta   90.00000000
_cell_angle_gamma   90.00000000
_symmetry_Int_Tables_number   1
_chemical_formula_structural   NaCl
_chemical_formula_sum   'Na4 Cl4'
_cell_volume   264.44925916
_cell_formula_units_Z   4
loop_
 _symmetry_equiv_pos_site_id
 _symmetry_equiv_pos_as_xyz
  1  'x, y, z'
loop_
 _atom_site_type_symbol
 _atom_site_label
 _atom_site_symmetry_multiplicity
 _atom_site_fract_x
 _atom_site_fract_y
 _atom_site_fract_z
 _atom_site_occupancy
  Na  Na0  1  0.28920855  0.90460508  0.36019864  1.0
  Na  Na1  1  0.55233857  0.04012162  0.94640170  1.0
  Na  Na2  1  0.45226359  0.50270562  0.51442059  1.0
  Na  Na3  1  0.05801622  0.72764526  0.88265899  1.0
  Cl  Cl4  1  0.18634826  0.97415063  0.45733928  1.0
  Cl  Cl5  1  0.43614776  0.76928246  0.75721090  1.0
  Cl  Cl6  1  0.13632519  0.28223413  0.12106373  1.0
  Cl  Cl7  1  0.79526129  0.45429488  0.19677324  1.0
