# generated using pymatgen
data_NaCl
_symmetry_space_group_name_H-M   'P 1'
_cell_length_a   6.05600234
_cell_length_b   6.05600234
_cell_length_c   6.05600234
_cell_angle_alpha   90.00000000
_cell_angle_beta   90.00000000
_cell_angle_gamma   90.00000000
_symmetry_Int_Tables_number   1
_chemical_formula_structural   NaCl
_chemical_formula_sum   'Na4 Cl4'
_cell_volume   222.10488108
_cell_formula_units_Z   4
loop_
 _symmetry_equiv_pos_site_id
 _symmetry_equiv_pos_as_xyz
  1  'x, y, z'
loop_
 _atom_site_type_symbol
 _atom_site_label
 _atom_site_symmetry_multiplicity
 _atom_site_fract_x
 _atom_site_fract_y
 _atom_site_fract_z
 _atom_site_occupancy
  Na  Na0  1  0.16448652  0.16448652  0.16448652  1.0
  Na  Na1  1  0.18492975  0.68492975  0.81507025  1.0
  Na  Na2  1  0.54753361  0.95246639  0.04753361  1.0
  Na  Na3  1  0.78468825  0.21531175  0.71531175  1.0
  Cl  Cl4  1  0.31721481  0.31721481  0.31721481  1.0
  Cl  Cl5  1  0.53458884  0.03458884  0.46541116  1.0
  Cl  Cl6  1  0.67451303  0.82548697  0.17451303  1.0
  Cl  Cl7  1  0.03182801  0.96817199  0.46817199  1.0
