# generated using pymatgen
data_NaCl
_symmetry_space_group_name_H-M   'P 1'
_cell_length_a   6.47117570
_cell_length_b   6.16160471
_cell_length_c   10.42830738
_cell_angle_alpha   90.00000000
_cell_angle_beta   48.04743517
_cell_angle_gamma   90.00000000
_symmetry_Int_Tables_number   1
_chemical_formula_structural   NaCl
_chemical_formula_sum   'Na4 Cl4'
_cell_volume   309.23438564
_cell_formula_units_Z   4
loop_
 _symmetry_equiv_pos_site_id
 _symmetry_equiv_pos_as_xyz
  1  'x, y, z'
loop_
 _atom_site_type_symbol
 _atom_site_label
 _atom_site_symmetry_multiplicity
 _atom_site_fract_x
 _atom_site_fract_y
 _atom_site_fract_z
 _atom_site_occupancy
  Na  Na0  1  0.54276932  0.65469980  0.11520866  1.0
  Na  Na1  1  0.82193744  0.04655755  0.29289423  1.0
  Na  Na2  1  0.71581077  0.25370945  0.07017825  1.0
  Na  Na3  1  0.11351067  0.12450827  0.02393526  1.0
  Cl  Cl4  1  0.00145603  0.00000000  0.92925717  1.0
  Cl  Cl5  1  0.18680128  0.50000000  0.52476077  1.0
  Cl  Cl6  1  0.85064306  0.00000000  0.41822765  1.0
  Cl  Cl7  1  0.75483010  0.50000000  0.38538049  1.0
