# generated using pymatgen
data_NaCl
_symmetry_space_group_name_H-M   'P 1'
_cell_length_a   5.57589658
_cell_length_b   5.57589658
_cell_length_c   10.33490831
_cell_angle_alpha   90.00000000
_cell_angle_beta   90.00000000
_cell_angle_gamma   90.00000000
_symmetry_Int_Tables_number   1
_chemical_formula_structural   NaCl
_chemical_formula_sum   'Na4 Cl4'
_cell_volume   321.31873460
_cell_formula_units_Z   4
loop_
 _symmetry_equiv_pos_site_id
 _symmetry_equiv_pos_as_xyz
  1  'x, y, z'
loop_
 _atom_site_type_symbol
 _atom_site_label
 _atom_site_symmetry_multiplicity
 _atom_site_fract_x
 _atom_site_fract_y
 _atom_site_fract_z
 _atom_site_occupancy
  Na  Na0  1  0.87653674  0.87653674  0.00000000  1.0
  Na  Na1  1  0.17136690  0.17136690  0.50000000  1.0
  Na  Na2  1  0.89120676  0.10879324  0.25000000  1.0
  Na  Na3  1  0.89077521  0.10922479  0.75000000  1.0
  Cl  Cl4  1  0.41381372  0.41381372  0.00000000  1.0
  Cl  Cl5  1  0.78602407  0.78602407  0.50000000  1.0
  Cl  Cl6  1  0.19001257  0.80998743  0.25000000  1.0
  Cl  Cl7  1  0.72290566  0.27709434  0.75000000  1.0
