# generated using pymatgen
data_NaCl
_symmetry_space_group_name_H-M   'P 1'
_cell_length_a   4.99719598
_cell_length_b   4.99719598
_cell_length_c   4.99719598
_cell_angle_alpha   90.00000000
_cell_angle_beta   90.00000000
_cell_angle_gamma   90.00000000
_symmetry_Int_Tables_number   1
_chemical_formula_structural   NaCl
_chemical_formula_sum   'Na4 Cl4'
_cell_volume   124.78981642
_cell_formula_units_Z   4
loop_
 _symmetry_equiv_pos_site_id
 _symmetry_equiv_pos_as_xyz
  1  'x, y, z'
loop_
 _atom_site_type_symbol
 _atom_site_label
 _atom_site_symmetry_multiplicity
 _atom_site_fract_x
 _atom_site_fract_y
 _atom_site_fract_z
 _atom_site_occupancy
  Na  Na0  1  0.75552533  0.75552533  0.75552533  1.0
  Na  Na1  1  0.39340398  0.89340398  0.60659602  1.0
  Na  Na2  1  0.89267702  0.60732298  0.39267702  1.0
  Na  Na3  1  0.48218792  0.51781208  0.01781208  1.0
  Cl  Cl4  1  0.46643886  0.46643886  0.46643886  1.0
  Cl  Cl5  1  0.13283917  0.63283917  0.86716083  1.0
  Cl  Cl6  1  0.29311888  0.20688112  0.79311888  1.0
  Cl  Cl7  1  0.90960180  0.09039820  0.59039820  1.0
