# generated using pymatgen
data_NaCl
_symmetry_space_group_name_H-M   'P 1'
_cell_length_a   6.16773631
_cell_length_b   4.59410467
_cell_length_c   14.55687756
_cell_angle_alpha   90.00000000
_cell_angle_beta   71.60885871
_cell_angle_gamma   90.00000000
_symmetry_Int_Tables_number   1
_chemical_formula_structural   NaCl
_chemical_formula_sum   'Na4 Cl4'
_cell_volume   391.40530859
_cell_formula_units_Z   4
loop_
 _symmetry_equiv_pos_site_id
 _symmetry_equiv_pos_as_xyz
  1  'x, y, z'
loop_
 _atom_site_type_symbol
 _atom_site_label
 _atom_site_symmetry_multiplicity
 _atom_site_fract_x
 _atom_site_fract_y
 _atom_site_fract_z
 _atom_site_occupancy
  Na  Na0  1  0.52234122  0.07713591  0.24691981  1.0
  Na  Na1  1  0.33414139  0.47014869  0.00950257  1.0
  Na  Na2  1  0.14828322  0.83656269  0.48054257  1.0
  Na  Na3  1  0.75565853  0.92568279  0.68611255  1.0
  Cl  Cl4  1  0.24353991  0.25551477  0.78171585  1.0
  Cl  Cl5  1  0.46775628  0.34440262  0.16004114  1.0
  Cl  Cl6  1  0.58825491  0.80847423  0.35443121  1.0
  Cl  Cl7  1  0.04248604  0.17651370  0.96852771  1.0
