# generated using pymatgen
data_NaCl
_symmetry_space_group_name_H-M   'P 1'
_cell_length_a   6.16972022
_cell_length_b   20.06789504
_cell_length_c   2.14123102
_cell_angle_alpha   90.00000000
_cell_angle_beta   101.10501294
_cell_angle_gamma   90.00000000
_symmetry_Int_Tables_number   1
_chemical_formula_structural   NaCl
_chemical_formula_sum   'Na4 Cl4'
_cell_volume   260.14885172
_cell_formula_units_Z   4
loop_
 _symmetry_equiv_pos_site_id
 _symmetry_equiv_pos_as_xyz
  1  'x, y, z'
loop_
 _atom_site_type_symbol
 _atom_site_label
 _atom_site_symmetry_multiplicity
 _atom_site_fract_x
 _atom_site_fract_y
 _atom_site_fract_z
 _atom_site_occupancy
  Na  Na0  1  0.24013978  0.70231042  0.46491157  1.0
  Na  Na1  1  0.46576657  0.35716425  0.46790000  1.0
  Na  Na2  1  0.68950744  0.23105008  0.05294503  1.0
  Na  Na3  1  0.12195431  0.88758116  0.56371667  1.0
  Cl  Cl4  1  0.33166751  0.85492157  0.40479196  1.0
  Cl  Cl5  1  0.99986628  0.00030006  0.84091274  1.0
  Cl  Cl6  1  0.13194812  0.49191322  0.67865981  1.0
  Cl  Cl7  1  0.31480406  0.15687213  0.72276405  1.0
