# generated using pymatgen
data_NaCl
_symmetry_space_group_name_H-M   'P 1'
_cell_length_a   6.14470323
_cell_length_b   6.14470323
_cell_length_c   6.14470323
_cell_angle_alpha   90.00000000
_cell_angle_beta   90.00000000
_cell_angle_gamma   90.00000000
_symmetry_Int_Tables_number   1
_chemical_formula_structural   NaCl
_chemical_formula_sum   'Na4 Cl4'
_cell_volume   232.00788123
_cell_formula_units_Z   4
loop_
 _symmetry_equiv_pos_site_id
 _symmetry_equiv_pos_as_xyz
  1  'x, y, z'
loop_
 _atom_site_type_symbol
 _atom_site_label
 _atom_site_symmetry_multiplicity
 _atom_site_fract_x
 _atom_site_fract_y
 _atom_site_fract_z
 _atom_site_occupancy
  Na  Na0  1  0.90878507  0.90878507  0.90878507  1.0
  Na  Na1  1  0.00205448  0.50205448  0.99794552  1.0
  Na  Na2  1  0.48802646  0.01197354  0.98802646  1.0
  Na  Na3  1  0.79511265  0.20488735  0.70488735  1.0
  Cl  Cl4  1  0.20634765  0.20634765  0.20634765  1.0
  Cl  Cl5  1  0.51898991  0.01898991  0.48101009  1.0
  Cl  Cl6  1  0.68487833  0.81512167  0.18487833  1.0
  Cl  Cl7  1  0.90710538  0.09289462  0.59289462  1.0
