# generated using pymatgen
data_NaCl
_symmetry_space_group_name_H-M   'P 1'
_cell_length_a   3.39323799
_cell_length_b   3.39323799
_cell_length_c   8.69011654
_cell_angle_alpha   90.00000000
_cell_angle_beta   90.00000000
_cell_angle_gamma   90.00000000
_symmetry_Int_Tables_number   1
_chemical_formula_structural   NaCl
_chemical_formula_sum   'Na4 Cl4'
_cell_volume   100.05855850
_cell_formula_units_Z   4
loop_
 _symmetry_equiv_pos_site_id
 _symmetry_equiv_pos_as_xyz
  1  'x, y, z'
loop_
 _atom_site_type_symbol
 _atom_site_label
 _atom_site_symmetry_multiplicity
 _atom_site_fract_x
 _atom_site_fract_y
 _atom_site_fract_z
 _atom_site_occupancy
  Na  Na0  1  0.71728238  0.71728238  0.00000000  1.0
  Na  Na1  1  0.00418605  0.00418605  0.50000000  1.0
  Na  Na2  1  0.08552730  0.91447270  0.25000000  1.0
  Na  Na3  1  0.16416751  0.83583249  0.75000000  1.0
  Cl  Cl4  1  0.39327092  0.39327092  0.00000000  1.0
  Cl  Cl5  1  0.62640364  0.62640364  0.50000000  1.0
  Cl  Cl6  1  0.74231540  0.25768460  0.25000000  1.0
  Cl  Cl7  1  0.88742485  0.11257515  0.75000000  1.0
