# generated using pymatgen
data_NaCl
_symmetry_space_group_name_H-M   'P 1'
_cell_length_a   5.48049786
_cell_length_b   5.48049786
_cell_length_c   5.48049786
_cell_angle_alpha   90.00000000
_cell_angle_beta   90.00000000
_cell_angle_gamma   90.00000000
_symmetry_Int_Tables_number   1
_chemical_formula_structural   NaCl
_chemical_formula_sum   'Na4 Cl4'
_cell_volume   164.61144888
_cell_formula_units_Z   4
loop_
 _symmetry_equiv_pos_site_id
 _symmetry_equiv_pos_as_xyz
  1  'x, y, z'
loop_
 _atom_site_type_symbol
 _atom_site_label
 _atom_site_symmetry_multiplicity
 _atom_site_fract_x
 _atom_site_fract_y
 _atom_site_fract_z
 _atom_site_occupancy
  Na  Na0  1  0.59009144  0.59009144  0.59009144  1.0
  Na  Na1  1  0.00205979  0.50205979  0.99794021  1.0
  Na  Na2  1  0.44422581  0.05577419  0.94422581  1.0
  Na  Na3  1  0.89513563  0.10486437  0.60486437  1.0
  Cl  Cl4  1  0.40623050  0.40623050  0.40623050  1.0
  Cl  Cl5  1  0.18809835  0.68809835  0.81190165  1.0
  Cl  Cl6  1  0.86848694  0.63151306  0.36848694  1.0
  Cl  Cl7  1  0.35301365  0.64698635  0.14698635  1.0
