# generated using pymatgen
data_NaCl
_symmetry_space_group_name_H-M   'P 1'
_cell_length_a   3.56000877
_cell_length_b   3.90624532
_cell_length_c   16.68727403
_cell_angle_alpha   90.00000000
_cell_angle_beta   90.00000000
_cell_angle_gamma   90.00000000
_symmetry_Int_Tables_number   1
_chemical_formula_structural   NaCl
_chemical_formula_sum   'Na4 Cl4'
_cell_volume   232.05769813
_cell_formula_units_Z   4
loop_
 _symmetry_equiv_pos_site_id
 _symmetry_equiv_pos_as_xyz
  1  'x, y, z'
loop_
 _atom_site_type_symbol
 _atom_site_label
 _atom_site_symmetry_multiplicity
 _atom_site_fract_x
 _atom_site_fract_y
 _atom_site_fract_z
 _atom_site_occupancy
  Na  Na0  1  0.50000000  0.73529629  0.25000000  1.0
  Na  Na1  1  0.50000000  0.23807636  0.75000000  1.0
  Na  Na2  1  0.10049687  0.00000000  0.00000000  1.0
  Na  Na3  1  0.41279297  0.00000000  0.50000000  1.0
  Cl  Cl4  1  0.47226709  0.20247557  0.96157844  1.0
  Cl  Cl5  1  0.55386686  0.26413862  0.32721342  1.0
  Cl  Cl6  1  0.44128443  0.29809735  0.16028786  1.0
  Cl  Cl7  1  0.28175548  0.67453986  0.89110582  1.0
