# generated using pymatgen
data_NaCl
_symmetry_space_group_name_H-M   'P 1'
_cell_length_a   4.86345940
_cell_length_b   6.77672567
_cell_length_c   10.90589252
_cell_angle_alpha   90.00000000
_cell_angle_beta   90.00000000
_cell_angle_gamma   90.00000000
_symmetry_Int_Tables_number   1
_chemical_formula_structural   NaCl
_chemical_formula_sum   'Na4 Cl4'
_cell_volume   359.44000637
_cell_formula_units_Z   4
loop_
 _symmetry_equiv_pos_site_id
 _symmetry_equiv_pos_as_xyz
  1  'x, y, z'
loop_
 _atom_site_type_symbol
 _atom_site_label
 _atom_site_symmetry_multiplicity
 _atom_site_fract_x
 _atom_site_fract_y
 _atom_site_fract_z
 _atom_site_occupancy
  Na  Na0  1  0.69198966  0.57963475  0.20512482  1.0
  Na  Na1  1  0.94012973  0.39331494  0.09233412  1.0
  Na  Na2  1  0.84251473  0.61394216  0.38169722  1.0
  Na  Na3  1  0.91313350  0.59460809  0.69482608  1.0
  Cl  Cl4  1  0.14399605  0.28984667  0.99641649  1.0
  Cl  Cl5  1  0.64610442  0.13475423  0.33847688  1.0
  Cl  Cl6  1  0.20778643  0.61769259  0.47344102  1.0
  Cl  Cl7  1  0.35775097  0.03660645  0.17863918  1.0
