# generated using pymatgen
data_NaCl
_symmetry_space_group_name_H-M   'P 1'
_cell_length_a   4.59037811
_cell_length_b   4.59037811
_cell_length_c   16.62402698
_cell_angle_alpha   90.00000000
_cell_angle_beta   90.00000000
_cell_angle_gamma   90.00000000
_symmetry_Int_Tables_number   1
_chemical_formula_structural   NaCl
_chemical_formula_sum   'Na4 Cl4'
_cell_volume   350.29436802
_cell_formula_units_Z   4
loop_
 _symmetry_equiv_pos_site_id
 _symmetry_equiv_pos_as_xyz
  1  'x, y, z'
loop_
 _atom_site_type_symbol
 _atom_site_label
 _atom_site_symmetry_multiplicity
 _atom_site_fract_x
 _atom_site_fract_y
 _atom_site_fract_z
 _atom_site_occupancy
  Na  Na0  1  0.54560886  0.50118851  0.40656621  1.0
  Na  Na1  1  0.18925495  0.21342749  0.78465015  1.0
  Na  Na2  1  0.77216303  0.37025370  0.35001329  1.0
  Na  Na3  1  0.16009095  0.40363604  0.86985466  1.0
  Cl  Cl4  1  0.30534514  0.51205924  0.45263813  1.0
  Cl  Cl5  1  0.99559918  0.08702040  0.22236974  1.0
  Cl  Cl6  1  0.10088794  0.33846642  0.37302416  1.0
  Cl  Cl7  1  0.53023988  0.88080799  0.98216255  1.0
