# generated using pymatgen
data_NaCl
_symmetry_space_group_name_H-M   'P 1'
_cell_length_a   3.92616254
_cell_length_b   3.92616254
_cell_length_c   21.55682428
_cell_angle_alpha   90.00000000
_cell_angle_beta   90.00000000
_cell_angle_gamma   90.00000000
_symmetry_Int_Tables_number   1
_chemical_formula_structural   NaCl
_chemical_formula_sum   'Na4 Cl4'
_cell_volume   332.29310645
_cell_formula_units_Z   4
loop_
 _symmetry_equiv_pos_site_id
 _symmetry_equiv_pos_as_xyz
  1  'x, y, z'
loop_
 _atom_site_type_symbol
 _atom_site_label
 _atom_site_symmetry_multiplicity
 _atom_site_fract_x
 _atom_site_fract_y
 _atom_site_fract_z
 _atom_site_occupancy
  Na  Na0  1  0.19700707  0.90004256  0.43210591  1.0
  Na  Na1  1  0.50391987  0.44340811  0.04602764  1.0
  Na  Na2  1  0.44866933  0.64136959  0.98632560  1.0
  Na  Na3  1  0.15378903  0.49319793  0.36902331  1.0
  Cl  Cl4  1  0.35123277  0.16439591  0.01482414  1.0
  Cl  Cl5  1  0.10942465  0.14150975  0.85750594  1.0
  Cl  Cl6  1  0.20494557  0.15783913  0.67403850  1.0
  Cl  Cl7  1  0.93925392  0.39998058  0.33842227  1.0
