# generated using pymatgen
data_NaCl
_symmetry_space_group_name_H-M   'P 1'
_cell_length_a   5.52673943
_cell_length_b   5.52673943
_cell_length_c   5.52673943
_cell_angle_alpha   90.00000000
_cell_angle_beta   90.00000000
_cell_angle_gamma   90.00000000
_symmetry_Int_Tables_number   1
_chemical_formula_structural   NaCl
_chemical_formula_sum   'Na4 Cl4'
_cell_volume   168.81341984
_cell_formula_units_Z   4
loop_
 _symmetry_equiv_pos_site_id
 _symmetry_equiv_pos_as_xyz
  1  'x, y, z'
loop_
 _atom_site_type_symbol
 _atom_site_label
 _atom_site_symmetry_multiplicity
 _atom_site_fract_x
 _atom_site_fract_y
 _atom_site_fract_z
 _atom_site_occupancy
  Na  Na0  1  0.96780197  0.96780197  0.96780197  1.0
  Na  Na1  1  0.95985216  0.45985216  0.04014784  1.0
  Na  Na2  1  0.43053965  0.06946035  0.93053965  1.0
  Na  Na3  1  0.87655874  0.12344126  0.62344126  1.0
  Cl  Cl4  1  0.19841744  0.19841744  0.19841744  1.0
  Cl  Cl5  1  0.55081005  0.05081005  0.44918995  1.0
  Cl  Cl6  1  0.67961502  0.82038498  0.17961502  1.0
  Cl  Cl7  1  0.00524233  0.99475767  0.49475767  1.0
