# generated using pymatgen
data_NaCl
_symmetry_space_group_name_H-M   'P 1'
_cell_length_a   5.93202345
_cell_length_b   13.30208561
_cell_length_c   2.88353760
_cell_angle_alpha   90.00000000
_cell_angle_beta   67.17836204
_cell_angle_gamma   90.00000000
_symmetry_Int_Tables_number   1
_chemical_formula_structural   NaCl
_chemical_formula_sum   'Na4 Cl4'
_cell_volume   209.72282121
_cell_formula_units_Z   4
loop_
 _symmetry_equiv_pos_site_id
 _symmetry_equiv_pos_as_xyz
  1  'x, y, z'
loop_
 _atom_site_type_symbol
 _atom_site_label
 _atom_site_symmetry_multiplicity
 _atom_site_fract_x
 _atom_site_fract_y
 _atom_site_fract_z
 _atom_site_occupancy
  Na  Na0  1  0.68842056  0.67955980  0.50580533  1.0
  Na  Na1  1  0.99914058  0.51562556  0.29574164  1.0
  Na  Na2  1  0.68131475  0.94763109  0.99948170  1.0
  Na  Na3  1  0.45359514  0.45175111  0.97036980  1.0
  Cl  Cl4  1  0.06803433  0.00115700  0.52012222  1.0
  Cl  Cl5  1  0.77853922  0.50690320  0.17466638  1.0
  Cl  Cl6  1  0.22320346  0.95070234  0.80026126  1.0
  Cl  Cl7  1  0.11207681  0.89297468  0.79323555  1.0
