# generated using pymatgen
data_NaCl
_symmetry_space_group_name_H-M   'P 1'
_cell_length_a   3.91312793
_cell_length_b   14.30247738
_cell_length_c   6.09988143
_cell_angle_alpha   90.00000000
_cell_angle_beta   41.68158941
_cell_angle_gamma   90.00000000
_symmetry_Int_Tables_number   1
_chemical_formula_structural   NaCl
_chemical_formula_sum   'Na4 Cl4'
_cell_volume   227.02416610
_cell_formula_units_Z   4
loop_
 _symmetry_equiv_pos_site_id
 _symmetry_equiv_pos_as_xyz
  1  'x, y, z'
loop_
 _atom_site_type_symbol
 _atom_site_label
 _atom_site_symmetry_multiplicity
 _atom_site_fract_x
 _atom_site_fract_y
 _atom_site_fract_z
 _atom_site_occupancy
  Na  Na0  1  0.65975485  0.69868458  0.00295601  1.0
  Na  Na1  1  0.08345990  0.73953254  0.05603972  1.0
  Na  Na2  1  0.78540898  0.88668976  0.99993790  1.0
  Na  Na3  1  0.55509140  0.86921841  0.46971606  1.0
  Cl  Cl4  1  0.97485205  0.03095646  0.81150271  1.0
  Cl  Cl5  1  0.20720681  0.05021521  0.05761531  1.0
  Cl  Cl6  1  0.00210879  0.80293948  0.92615508  1.0
  Cl  Cl7  1  0.86250472  0.52884464  0.99962737  1.0
