# generated using pymatgen
data_NaCl
_symmetry_space_group_name_H-M   'P 1'
_cell_length_a   3.13360909
_cell_length_b   3.13360909
_cell_length_c   24.76778476
_cell_angle_alpha   90.00000000
_cell_angle_beta   90.00000000
_cell_angle_gamma   120.00000000
_symmetry_Int_Tables_number   1
_chemical_formula_structural   NaCl
_chemical_formula_sum   'Na4 Cl4'
_cell_volume   210.62379484
_cell_formula_units_Z   4
loop_
 _symmetry_equiv_pos_site_id
 _symmetry_equiv_pos_as_xyz
  1  'x, y, z'
loop_
 _atom_site_type_symbol
 _atom_site_label
 _atom_site_symmetry_multiplicity
 _atom_site_fract_x
 _atom_site_fract_y
 _atom_site_fract_z
 _atom_site_occupancy
  Na  Na0  1  0.00000000  0.00000000  0.47395143  1.0
  Na  Na1  1  0.00000000  0.00000000  0.98277939  1.0
  Na  Na2  1  0.00000000  0.00000000  0.73875972  1.0
  Na  Na3  1  0.00000000  0.00000000  0.08185787  1.0
  Cl  Cl4  1  0.33333333  0.66666667  0.26963976  1.0
  Cl  Cl5  1  0.66666667  0.33333333  0.90428892  1.0
  Cl  Cl6  1  0.33333333  0.66666667  0.78378687  1.0
  Cl  Cl7  1  0.66666667  0.33333333  0.78661865  1.0
