# generated using pymatgen
data_NaCl
_symmetry_space_group_name_H-M   'P 1'
_cell_length_a   7.17952024
_cell_length_b   15.06249381
_cell_length_c   3.11039859
_cell_angle_alpha   90.00000000
_cell_angle_beta   90.00000000
_cell_angle_gamma   90.00000000
_symmetry_Int_Tables_number   1
_chemical_formula_structural   NaCl
_chemical_formula_sum   'Na4 Cl4'
_cell_volume   336.36310434
_cell_formula_units_Z   4
loop_
 _symmetry_equiv_pos_site_id
 _symmetry_equiv_pos_as_xyz
  1  'x, y, z'
loop_
 _atom_site_type_symbol
 _atom_site_label
 _atom_site_symmetry_multiplicity
 _atom_site_fract_x
 _atom_site_fract_y
 _atom_site_fract_z
 _atom_site_occupancy
  Na  Na0  1  0.00000000  0.68769542  0.27030497  1.0
  Na  Na1  1  0.00000000  0.58939312  0.01260702  1.0
  Na  Na2  1  0.50000000  0.27529518  0.78318322  1.0
  Na  Na3  1  0.50000000  0.88901179  0.89853198  1.0
  Cl  Cl4  1  0.00000000  0.00016081  0.45316010  1.0
  Cl  Cl5  1  0.00000000  0.24772030  0.09431965  1.0
  Cl  Cl6  1  0.50000000  0.77414631  0.87689235  1.0
  Cl  Cl7  1  0.50000000  0.45212371  0.63881795  1.0
