# generated using pymatgen
data_NaCl
_symmetry_space_group_name_H-M   'P 1'
_cell_length_a   4.80582675
_cell_length_b   10.51144088
_cell_length_c   3.61776483
_cell_angle_alpha   90.00000000
_cell_angle_beta   90.00000000
_cell_angle_gamma   90.00000000
_symmetry_Int_Tables_number   1
_chemical_formula_structural   NaCl
_chemical_formula_sum   'Na4 Cl4'
_cell_volume   182.75560061
_cell_formula_units_Z   4
loop_
 _symmetry_equiv_pos_site_id
 _symmetry_equiv_pos_as_xyz
  1  'x, y, z'
loop_
 _atom_site_type_symbol
 _atom_site_label
 _atom_site_symmetry_multiplicity
 _atom_site_fract_x
 _atom_site_fract_y
 _atom_site_fract_z
 _atom_site_occupancy
  Na  Na0  1  0.00000000  0.78881921  0.69075959  1.0
  Na  Na1  1  0.00000000  0.49091165  0.33900012  1.0
  Na  Na2  1  0.50000000  0.01537412  0.91035761  1.0
  Na  Na3  1  0.50000000  0.78551627  0.38489033  1.0
  Cl  Cl4  1  0.00000000  0.06560734  0.38480185  1.0
  Cl  Cl5  1  0.00000000  0.11892774  0.16881581  1.0
  Cl  Cl6  1  0.50000000  0.54460223  0.83399312  1.0
  Cl  Cl7  1  0.50000000  0.40628034  0.05206598  1.0
