# generated using pymatgen
data_NaCl
_symmetry_space_group_name_H-M   'P 1'
_cell_length_a   7.80356116
_cell_length_b   16.29158318
_cell_length_c   3.10876920
_cell_angle_alpha   90.00000000
_cell_angle_beta   87.40926614
_cell_angle_gamma   90.00000000
_symmetry_Int_Tables_number   1
_chemical_formula_structural   NaCl
_chemical_formula_sum   'Na4 Cl4'
_cell_volume   394.82122052
_cell_formula_units_Z   4
loop_
 _symmetry_equiv_pos_site_id
 _symmetry_equiv_pos_as_xyz
  1  'x, y, z'
loop_
 _atom_site_type_symbol
 _atom_site_label
 _atom_site_symmetry_multiplicity
 _atom_site_fract_x
 _atom_site_fract_y
 _atom_site_fract_z
 _atom_site_occupancy
  Na  Na0  1  0.77934325  0.98125804  0.63785129  1.0
  Na  Na1  1  0.83210818  0.52125074  0.30439093  1.0
  Na  Na2  1  0.21027554  0.39684150  0.85911156  1.0
  Na  Na3  1  0.97570710  0.76992580  0.95677483  1.0
  Cl  Cl4  1  0.07451349  0.18266593  0.24385533  1.0
  Cl  Cl5  1  0.39395460  0.35364517  0.05804450  1.0
  Cl  Cl6  1  0.52235596  0.28798513  0.69630838  1.0
  Cl  Cl7  1  0.79312484  0.37656112  0.73599626  1.0
