# generated using pymatgen
data_NaCl
_symmetry_space_group_name_H-M   'P 1'
_cell_length_a   6.53084947
_cell_length_b   6.53084947
_cell_length_c   4.43742903
_cell_angle_alpha   90.00000000
_cell_angle_beta   90.00000000
_cell_angle_gamma   90.00000000
_symmetry_Int_Tables_number   1
_chemical_formula_structural   NaCl
_chemical_formula_sum   'Na4 Cl4'
_cell_volume   189.26519991
_cell_formula_units_Z   4
loop_
 _symmetry_equiv_pos_site_id
 _symmetry_equiv_pos_as_xyz
  1  'x, y, z'
loop_
 _atom_site_type_symbol
 _atom_site_label
 _atom_site_symmetry_multiplicity
 _atom_site_fract_x
 _atom_site_fract_y
 _atom_site_fract_z
 _atom_site_occupancy
  Na  Na0  1  0.60916947  0.72473093  0.53252720  1.0
  Na  Na1  1  0.14806635  0.79096162  0.31389303  1.0
  Na  Na2  1  0.16095972  0.71690423  0.63440860  1.0
  Na  Na3  1  0.43249886  0.72925330  0.77230161  1.0
  Cl  Cl4  1  0.09839035  0.06065575  0.22537369  1.0
  Cl  Cl5  1  0.17288880  0.36878798  0.23845419  1.0
  Cl  Cl6  1  0.22415825  0.48430032  0.69829964  1.0
  Cl  Cl7  1  0.05996662  0.95977214  0.69224740  1.0
