# generated using pymatgen
data_NaCl
_symmetry_space_group_name_H-M   'P 1'
_cell_length_a   12.14598711
_cell_length_b   14.16360686
_cell_length_c   2.01158007
_cell_angle_alpha   90.00000000
_cell_angle_beta   90.00000000
_cell_angle_gamma   90.00000000
_symmetry_Int_Tables_number   1
_chemical_formula_structural   NaCl
_chemical_formula_sum   'Na4 Cl4'
_cell_volume   346.05410357
_cell_formula_units_Z   4
loop_
 _symmetry_equiv_pos_site_id
 _symmetry_equiv_pos_as_xyz
  1  'x, y, z'
loop_
 _atom_site_type_symbol
 _atom_site_label
 _atom_site_symmetry_multiplicity
 _atom_site_fract_x
 _atom_site_fract_y
 _atom_site_fract_z
 _atom_site_occupancy
  Na  Na0  1  0.57216601  0.77955552  0.13541223  1.0
  Na  Na1  1  0.10112218  0.52706471  0.18203944  1.0
  Na  Na2  1  0.24742515  0.60782782  0.83947025  1.0
  Na  Na3  1  0.48021253  0.94586866  0.01584703  1.0
  Cl  Cl4  1  0.56864322  0.01863808  0.53627059  1.0
  Cl  Cl5  1  0.22157290  0.45376428  0.19827335  1.0
  Cl  Cl6  1  0.83573850  0.51913550  0.73747001  1.0
  Cl  Cl7  1  0.35788333  0.64118261  0.72482645  1.0
