# generated using pymatgen
data_NaCl
_symmetry_space_group_name_H-M   'P 1'
_cell_length_a   5.40561661
_cell_length_b   5.40561661
_cell_length_c   5.40561661
_cell_angle_alpha   90.00000000
_cell_angle_beta   90.00000000
_cell_angle_gamma   90.00000000
_symmetry_Int_Tables_number   1
_chemical_formula_structural   NaCl
_chemical_formula_sum   'Na4 Cl4'
_cell_volume   157.95585227
_cell_formula_units_Z   4
loop_
 _symmetry_equiv_pos_site_id
 _symmetry_equiv_pos_as_xyz
  1  'x, y, z'
loop_
 _atom_site_type_symbol
 _atom_site_label
 _atom_site_symmetry_multiplicity
 _atom_site_fract_x
 _atom_site_fract_y
 _atom_site_fract_z
 _atom_site_occupancy
  Na  Na0  1  0.80240126  0.80240126  0.80240126  1.0
  Na  Na1  1  0.56945450  0.06945450  0.43054550  1.0
  Na  Na2  1  0.31990912  0.18009088  0.81990912  1.0
  Na  Na3  1  0.74875855  0.25124145  0.75124145  1.0
  Cl  Cl4  1  0.05023243  0.05023243  0.05023243  1.0
  Cl  Cl5  1  0.94000925  0.44000925  0.05999075  1.0
  Cl  Cl6  1  0.79442296  0.70557704  0.29442296  1.0
  Cl  Cl7  1  0.53534420  0.46465580  0.96465580  1.0
