# generated using pymatgen
data_NaCl
_symmetry_space_group_name_H-M   'P 1'
_cell_length_a   9.17899728
_cell_length_b   11.17980123
_cell_length_c   3.40070206
_cell_angle_alpha   90.00000000
_cell_angle_beta   90.00000000
_cell_angle_gamma   90.00000000
_symmetry_Int_Tables_number   1
_chemical_formula_structural   NaCl
_chemical_formula_sum   'Na4 Cl4'
_cell_volume   348.97788623
_cell_formula_units_Z   4
loop_
 _symmetry_equiv_pos_site_id
 _symmetry_equiv_pos_as_xyz
  1  'x, y, z'
loop_
 _atom_site_type_symbol
 _atom_site_label
 _atom_site_symmetry_multiplicity
 _atom_site_fract_x
 _atom_site_fract_y
 _atom_site_fract_z
 _atom_site_occupancy
  Na  Na0  1  0.64997354  0.66236115  0.30449853  1.0
  Na  Na1  1  0.07020866  0.50525613  0.42497761  1.0
  Na  Na2  1  0.15081160  0.22238474  0.92763889  1.0
  Na  Na3  1  0.21265193  0.43156191  0.15917433  1.0
  Cl  Cl4  1  0.13386221  0.16146533  0.45413457  1.0
  Cl  Cl5  1  0.47277438  0.35941111  0.21336276  1.0
  Cl  Cl6  1  0.68840931  0.96657276  0.74624056  1.0
  Cl  Cl7  1  0.36373345  0.08150534  0.71272028  1.0
