# generated using pymatgen
data_NaCl
_symmetry_space_group_name_H-M   'P 1'
_cell_length_a   4.60402289
_cell_length_b   19.26423661
_cell_length_c   3.98005538
_cell_angle_alpha   90.00000000
_cell_angle_beta   82.19804142
_cell_angle_gamma   90.00000000
_symmetry_Int_Tables_number   1
_chemical_formula_structural   NaCl
_chemical_formula_sum   'Na4 Cl4'
_cell_volume   349.73531941
_cell_formula_units_Z   4
loop_
 _symmetry_equiv_pos_site_id
 _symmetry_equiv_pos_as_xyz
  1  'x, y, z'
loop_
 _atom_site_type_symbol
 _atom_site_label
 _atom_site_symmetry_multiplicity
 _atom_site_fract_x
 _atom_site_fract_y
 _atom_site_fract_z
 _atom_site_occupancy
  Na  Na0  1  0.81701126  0.78478180  0.68498293  1.0
  Na  Na1  1  0.91313888  0.37729424  0.04436883  1.0
  Na  Na2  1  0.29287907  0.30602345  0.59468875  1.0
  Na  Na3  1  0.58624957  0.94041824  0.95831417  1.0
  Cl  Cl4  1  0.05358661  0.06353933  0.19612878  1.0
  Cl  Cl5  1  0.52967350  0.52098334  0.05128372  1.0
  Cl  Cl6  1  0.92916011  0.50148478  0.45013581  1.0
  Cl  Cl7  1  0.51941446  0.49974591  0.63846723  1.0
