# generated using pymatgen
data_NaCl
_symmetry_space_group_name_H-M   'P 1'
_cell_length_a   7.47512043
_cell_length_b   13.64440030
_cell_length_c   3.94756158
_cell_angle_alpha   90.00000000
_cell_angle_beta   90.00000000
_cell_angle_gamma   90.00000000
_symmetry_Int_Tables_number   1
_chemical_formula_structural   NaCl
_chemical_formula_sum   'Na4 Cl4'
_cell_volume   402.62576190
_cell_formula_units_Z   4
loop_
 _symmetry_equiv_pos_site_id
 _symmetry_equiv_pos_as_xyz
  1  'x, y, z'
loop_
 _atom_site_type_symbol
 _atom_site_label
 _atom_site_symmetry_multiplicity
 _atom_site_fract_x
 _atom_site_fract_y
 _atom_site_fract_z
 _atom_site_occupancy
  Na  Na0  1  0.00000000  0.50000000  0.63737273  1.0
  Na  Na1  1  0.50000000  0.50000000  0.80208741  1.0
  Na  Na2  1  0.25000000  0.85747211  0.95632523  1.0
  Na  Na3  1  0.75000000  0.63279846  0.38815174  1.0
  Cl  Cl4  1  0.00000000  0.00000000  0.32716672  1.0
  Cl  Cl5  1  0.50000000  0.00000000  0.64580888  1.0
  Cl  Cl6  1  0.00000000  0.00000000  0.62074323  1.0
  Cl  Cl7  1  0.50000000  0.00000000  0.19023146  1.0
