# generated using pymatgen
data_NaCl
_symmetry_space_group_name_H-M   'P 1'
_cell_length_a   5.97096203
_cell_length_b   5.97096203
_cell_length_c   3.23915060
_cell_angle_alpha   90.00000000
_cell_angle_beta   90.00000000
_cell_angle_gamma   90.00000000
_symmetry_Int_Tables_number   1
_chemical_formula_structural   NaCl
_chemical_formula_sum   'Na4 Cl4'
_cell_volume   115.48345257
_cell_formula_units_Z   4
loop_
 _symmetry_equiv_pos_site_id
 _symmetry_equiv_pos_as_xyz
  1  'x, y, z'
loop_
 _atom_site_type_symbol
 _atom_site_label
 _atom_site_symmetry_multiplicity
 _atom_site_fract_x
 _atom_site_fract_y
 _atom_site_fract_z
 _atom_site_occupancy
  Na  Na0  1  0.67979789  0.67979789  0.00000000  1.0
  Na  Na1  1  0.08035917  0.08035917  0.50000000  1.0
  Na  Na2  1  0.78381364  0.21618636  0.75000000  1.0
  Na  Na3  1  0.77612759  0.22387241  0.25000000  1.0
  Cl  Cl4  1  0.03580442  0.03580442  0.00000000  1.0
  Cl  Cl5  1  0.27150826  0.27150826  0.50000000  1.0
  Cl  Cl6  1  0.12383537  0.87616463  0.75000000  1.0
  Cl  Cl7  1  0.59415989  0.40584011  0.25000000  1.0
