# generated using pymatgen
data_NaCl
_symmetry_space_group_name_H-M   'P 1'
_cell_length_a   8.16338025
_cell_length_b   10.66159543
_cell_length_c   3.97139917
_cell_angle_alpha   90.00000000
_cell_angle_beta   94.19441238
_cell_angle_gamma   90.00000000
_symmetry_Int_Tables_number   1
_chemical_formula_structural   NaCl
_chemical_formula_sum   'Na4 Cl4'
_cell_volume   344.72358469
_cell_formula_units_Z   4
loop_
 _symmetry_equiv_pos_site_id
 _symmetry_equiv_pos_as_xyz
  1  'x, y, z'
loop_
 _atom_site_type_symbol
 _atom_site_label
 _atom_site_symmetry_multiplicity
 _atom_site_fract_x
 _atom_site_fract_y
 _atom_site_fract_z
 _atom_site_occupancy
  Na  Na0  1  0.00000000  0.00000000  0.50000000  1.0
  Na  Na1  1  0.00000000  0.50000000  0.50000000  1.0
  Na  Na2  1  0.65530011  0.25000000  0.84486186  1.0
  Na  Na3  1  0.48917146  0.75000000  0.61146172  1.0
  Cl  Cl4  1  0.07447015  0.05041109  0.78147606  1.0
  Cl  Cl5  1  0.17464126  0.23935607  0.23756332  1.0
  Cl  Cl6  1  0.97737588  0.18067539  0.17251727  1.0
  Cl  Cl7  1  0.31652469  0.46584540  0.25789565  1.0
