# generated using pymatgen
data_NaCl
_symmetry_space_group_name_H-M   'P 1'
_cell_length_a   6.55311658
_cell_length_b   11.51052804
_cell_length_c   3.47532989
_cell_angle_alpha   90.00000000
_cell_angle_beta   90.00000000
_cell_angle_gamma   90.00000000
_symmetry_Int_Tables_number   1
_chemical_formula_structural   NaCl
_chemical_formula_sum   'Na4 Cl4'
_cell_volume   262.14355025
_cell_formula_units_Z   4
loop_
 _symmetry_equiv_pos_site_id
 _symmetry_equiv_pos_as_xyz
  1  'x, y, z'
loop_
 _atom_site_type_symbol
 _atom_site_label
 _atom_site_symmetry_multiplicity
 _atom_site_fract_x
 _atom_site_fract_y
 _atom_site_fract_z
 _atom_site_occupancy
  Na  Na0  1  0.25000000  0.26637328  0.22093300  1.0
  Na  Na1  1  0.75000000  0.65073855  0.65769069  1.0
  Na  Na2  1  0.75000000  0.31527677  0.38572291  1.0
  Na  Na3  1  0.25000000  0.05345824  0.03018555  1.0
  Cl  Cl4  1  0.00000000  0.00000000  0.66871785  1.0
  Cl  Cl5  1  0.50000000  0.00000000  0.77504404  1.0
  Cl  Cl6  1  0.50000000  0.50000000  0.10501119  1.0
  Cl  Cl7  1  0.00000000  0.50000000  0.83301476  1.0
