# generated using pymatgen
data_NaCl
_symmetry_space_group_name_H-M   'P 1'
_cell_length_a   5.16356314
_cell_length_b   15.25634737
_cell_length_c   6.61714804
_cell_angle_alpha   90.00000000
_cell_angle_beta   45.52926702
_cell_angle_gamma   90.00000000
_symmetry_Int_Tables_number   1
_chemical_formula_structural   NaCl
_chemical_formula_sum   'Na4 Cl4'
_cell_volume   371.98964918
_cell_formula_units_Z   4
loop_
 _symmetry_equiv_pos_site_id
 _symmetry_equiv_pos_as_xyz
  1  'x, y, z'
loop_
 _atom_site_type_symbol
 _atom_site_label
 _atom_site_symmetry_multiplicity
 _atom_site_fract_x
 _atom_site_fract_y
 _atom_site_fract_z
 _atom_site_occupancy
  Na  Na0  1  0.52400010  0.72381191  0.22576051  1.0
  Na  Na1  1  0.87358410  0.66443705  0.34232196  1.0
  Na  Na2  1  0.80778550  0.88108795  0.87594199  1.0
  Na  Na3  1  0.37725365  0.52290191  0.04540204  1.0
  Cl  Cl4  1  0.03522965  0.11297411  0.79434930  1.0
  Cl  Cl5  1  0.75879113  0.35739192  0.21764948  1.0
  Cl  Cl6  1  0.07370032  0.72930075  0.89974550  1.0
  Cl  Cl7  1  0.15448694  0.90232453  0.64956884  1.0
