# generated using pymatgen
data_NaCl
_symmetry_space_group_name_H-M   'P 1'
_cell_length_a   7.90437326
_cell_length_b   13.25655136
_cell_length_c   5.62065240
_cell_angle_alpha   90.00000000
_cell_angle_beta   33.34115878
_cell_angle_gamma   90.00000000
_symmetry_Int_Tables_number   1
_chemical_formula_structural   NaCl
_chemical_formula_sum   'Na4 Cl4'
_cell_volume   323.70521150
_cell_formula_units_Z   4
loop_
 _symmetry_equiv_pos_site_id
 _symmetry_equiv_pos_as_xyz
  1  'x, y, z'
loop_
 _atom_site_type_symbol
 _atom_site_label
 _atom_site_symmetry_multiplicity
 _atom_site_fract_x
 _atom_site_fract_y
 _atom_site_fract_z
 _atom_site_occupancy
  Na  Na0  1  0.75775808  0.52287986  0.54563163  1.0
  Na  Na1  1  0.07812282  0.85200533  0.34376406  1.0
  Na  Na2  1  0.50226902  0.76672433  0.82236918  1.0
  Na  Na3  1  0.68648237  0.88789355  0.36255881  1.0
  Cl  Cl4  1  0.05294731  0.10444203  0.68658726  1.0
  Cl  Cl5  1  0.06575802  0.05083817  0.34887992  1.0
  Cl  Cl6  1  0.53586040  0.88439056  0.92873300  1.0
  Cl  Cl7  1  0.87081491  0.11225051  0.72241587  1.0
