# generated using pymatgen
data_NaCl
_symmetry_space_group_name_H-M   'P 1'
_cell_length_a   8.23872213
_cell_length_b   8.27828816
_cell_length_c   3.64331790
_cell_angle_alpha   90.00000000
_cell_angle_beta   63.75990746
_cell_angle_gamma   90.00000000
_symmetry_Int_Tables_number   1
_chemical_formula_structural   NaCl
_chemical_formula_sum   'Na4 Cl4'
_cell_volume   222.87703080
_cell_formula_units_Z   4
loop_
 _symmetry_equiv_pos_site_id
 _symmetry_equiv_pos_as_xyz
  1  'x, y, z'
loop_
 _atom_site_type_symbol
 _atom_site_label
 _atom_site_symmetry_multiplicity
 _atom_site_fract_x
 _atom_site_fract_y
 _atom_site_fract_z
 _atom_site_occupancy
  Na  Na0  1  0.41129961  0.78018772  0.37587452  1.0
  Na  Na1  1  0.93895401  0.47124373  0.29750607  1.0
  Na  Na2  1  0.74469159  0.92702337  0.50750135  1.0
  Na  Na3  1  0.33687916  0.57379614  0.03828498  1.0
  Cl  Cl4  1  0.53386601  0.25942214  0.56015874  1.0
  Cl  Cl5  1  0.72928899  0.25223736  0.90500669  1.0
  Cl  Cl6  1  0.05391980  0.44516243  0.63667301  1.0
  Cl  Cl7  1  0.03312678  0.81770657  0.71158789  1.0
