# generated using pymatgen
data_NaCl
_symmetry_space_group_name_H-M   'P 1'
_cell_length_a   5.89424527
_cell_length_b   16.73755536
_cell_length_c   2.81736568
_cell_angle_alpha   90.00000000
_cell_angle_beta   86.91755707
_cell_angle_gamma   90.00000000
_symmetry_Int_Tables_number   1
_chemical_formula_structural   NaCl
_chemical_formula_sum   'Na4 Cl4'
_cell_volume   277.54579732
_cell_formula_units_Z   4
loop_
 _symmetry_equiv_pos_site_id
 _symmetry_equiv_pos_as_xyz
  1  'x, y, z'
loop_
 _atom_site_type_symbol
 _atom_site_label
 _atom_site_symmetry_multiplicity
 _atom_site_fract_x
 _atom_site_fract_y
 _atom_site_fract_z
 _atom_site_occupancy
  Na  Na0  1  0.62713678  0.67913762  0.47648605  1.0
  Na  Na1  1  0.17036513  0.01645972  0.28017222  1.0
  Na  Na2  1  0.88617329  0.80601224  0.90177094  1.0
  Na  Na3  1  0.51867455  0.97818681  0.44042256  1.0
  Cl  Cl4  1  0.00068240  0.27837317  0.55206203  1.0
  Cl  Cl5  1  0.32772353  0.13137306  0.22516641  1.0
  Cl  Cl6  1  0.17802164  0.09936876  0.86928223  1.0
  Cl  Cl7  1  0.94272025  0.60040198  0.60982999  1.0
