# generated using pymatgen
data_NaCl
_symmetry_space_group_name_H-M   'P 1'
_cell_length_a   5.71656479
_cell_length_b   5.71656479
_cell_length_c   5.71656479
_cell_angle_alpha   90.00000000
_cell_angle_beta   90.00000000
_cell_angle_gamma   90.00000000
_symmetry_Int_Tables_number   1
_chemical_formula_structural   NaCl
_chemical_formula_sum   'Na4 Cl4'
_cell_volume   186.81226673
_cell_formula_units_Z   4
loop_
 _symmetry_equiv_pos_site_id
 _symmetry_equiv_pos_as_xyz
  1  'x, y, z'
loop_
 _atom_site_type_symbol
 _atom_site_label
 _atom_site_symmetry_multiplicity
 _atom_site_fract_x
 _atom_site_fract_y
 _atom_site_fract_z
 _atom_site_occupancy
  Na  Na0  1  0.78907147  0.78907147  0.78907147  1.0
  Na  Na1  1  0.68663953  0.18663953  0.31336047  1.0
  Na  Na2  1  0.24019831  0.25980169  0.74019831  1.0
  Na  Na3  1  0.92389844  0.07610156  0.57610156  1.0
  Cl  Cl4  1  0.59135414  0.59135414  0.59135414  1.0
  Cl  Cl5  1  0.57638280  0.07638280  0.42361720  1.0
  Cl  Cl6  1  0.87020345  0.62979655  0.37020345  1.0
  Cl  Cl7  1  0.30472229  0.69527771  0.19527771  1.0
