# generated using pymatgen
data_NaCl
_symmetry_space_group_name_H-M   'P 1'
_cell_length_a   7.50625276
_cell_length_b   16.01455813
_cell_length_c   2.54194891
_cell_angle_alpha   90.00000000
_cell_angle_beta   59.85136396
_cell_angle_gamma   90.00000000
_symmetry_Int_Tables_number   1
_chemical_formula_structural   NaCl
_chemical_formula_sum   'Na4 Cl4'
_cell_volume   264.23063994
_cell_formula_units_Z   4
loop_
 _symmetry_equiv_pos_site_id
 _symmetry_equiv_pos_as_xyz
  1  'x, y, z'
loop_
 _atom_site_type_symbol
 _atom_site_label
 _atom_site_symmetry_multiplicity
 _atom_site_fract_x
 _atom_site_fract_y
 _atom_site_fract_z
 _atom_site_occupancy
  Na  Na0  1  0.45962667  0.70046214  0.12535768  1.0
  Na  Na1  1  0.88723310  0.31168015  0.31656881  1.0
  Na  Na2  1  0.15570118  0.24074832  0.98311927  1.0
  Na  Na3  1  0.21465437  0.11040114  0.04305682  1.0
  Cl  Cl4  1  0.06192333  0.05583489  0.71338167  1.0
  Cl  Cl5  1  0.21860730  0.53978508  0.01542304  1.0
  Cl  Cl6  1  0.58309945  0.27306444  0.96164783  1.0
  Cl  Cl7  1  0.61599271  0.67625576  0.76560956  1.0
