# generated using pymatgen
data_NaCl
_symmetry_space_group_name_H-M   'P 1'
_cell_length_a   4.65066100
_cell_length_b   15.75445414
_cell_length_c   5.23222276
_cell_angle_alpha   90.00000000
_cell_angle_beta   90.00000000
_cell_angle_gamma   90.00000000
_symmetry_Int_Tables_number   1
_chemical_formula_structural   NaCl
_chemical_formula_sum   'Na4 Cl4'
_cell_volume   383.35776965
_cell_formula_units_Z   4
loop_
 _symmetry_equiv_pos_site_id
 _symmetry_equiv_pos_as_xyz
  1  'x, y, z'
loop_
 _atom_site_type_symbol
 _atom_site_label
 _atom_site_symmetry_multiplicity
 _atom_site_fract_x
 _atom_site_fract_y
 _atom_site_fract_z
 _atom_site_occupancy
  Na  Na0  1  0.25000000  0.62798843  0.50928555  1.0
  Na  Na1  1  0.75000000  0.82408681  0.77719321  1.0
  Na  Na2  1  0.25000000  0.25330856  0.33695429  1.0
  Na  Na3  1  0.75000000  0.96953368  0.11212899  1.0
  Cl  Cl4  1  0.00000000  0.00000000  0.70414185  1.0
  Cl  Cl5  1  0.50000000  0.00000000  0.65024223  1.0
  Cl  Cl6  1  0.00000000  0.50000000  0.03704721  1.0
  Cl  Cl7  1  0.50000000  0.50000000  0.72911218  1.0
