# generated using pymatgen
data_NaCl
_symmetry_space_group_name_H-M   'P 1'
_cell_length_a   5.80711917
_cell_length_b   5.80711917
_cell_length_c   11.18744232
_cell_angle_alpha   90.00000000
_cell_angle_beta   90.00000000
_cell_angle_gamma   90.00000000
_symmetry_Int_Tables_number   1
_chemical_formula_structural   NaCl
_chemical_formula_sum   'Na4 Cl4'
_cell_volume   377.27001218
_cell_formula_units_Z   4
loop_
 _symmetry_equiv_pos_site_id
 _symmetry_equiv_pos_as_xyz
  1  'x, y, z'
loop_
 _atom_site_type_symbol
 _atom_site_label
 _atom_site_symmetry_multiplicity
 _atom_site_fract_x
 _atom_site_fract_y
 _atom_site_fract_z
 _atom_site_occupancy
  Na  Na0  1  0.96548489  0.37775476  0.87472988  1.0
  Na  Na1  1  0.30708788  0.10132012  0.56394598  1.0
  Na  Na2  1  0.89961731  0.16408064  0.83469791  1.0
  Na  Na3  1  0.14537559  0.87801067  0.50632706  1.0
  Cl  Cl4  1  0.08908139  0.22870465  0.30576146  1.0
  Cl  Cl5  1  0.28343790  0.01041287  0.79584535  1.0
  Cl  Cl6  1  0.87585388  0.80746696  0.59473152  1.0
  Cl  Cl7  1  0.28680813  0.83364522  0.18402490  1.0
