# generated using pymatgen
data_NaCl
_symmetry_space_group_name_H-M   'P 1'
_cell_length_a   6.26080536
_cell_length_b   13.72602880
_cell_length_c   2.02787983
_cell_angle_alpha   90.00000000
_cell_angle_beta   45.70775626
_cell_angle_gamma   90.00000000
_symmetry_Int_Tables_number   1
_chemical_formula_structural   NaCl
_chemical_formula_sum   'Na4 Cl4'
_cell_volume   124.73872368
_cell_formula_units_Z   4
loop_
 _symmetry_equiv_pos_site_id
 _symmetry_equiv_pos_as_xyz
  1  'x, y, z'
loop_
 _atom_site_type_symbol
 _atom_site_label
 _atom_site_symmetry_multiplicity
 _atom_site_fract_x
 _atom_site_fract_y
 _atom_site_fract_z
 _atom_site_occupancy
  Na  Na0  1  0.52750686  0.67425259  0.27124812  1.0
  Na  Na1  1  0.79846545  0.74829640  0.37421991  1.0
  Na  Na2  1  0.60539842  0.98231773  0.82259629  1.0
  Na  Na3  1  0.51198457  0.49865854  0.08152827  1.0
  Cl  Cl4  1  0.03048508  0.13876545  0.76551491  1.0
  Cl  Cl5  1  0.59321382  0.40214021  0.09363398  1.0
  Cl  Cl6  1  0.05923917  0.78121189  0.83034815  1.0
  Cl  Cl7  1  0.08907371  0.90798439  0.04059469  1.0
