# generated using pymatgen
data_NaCl
_symmetry_space_group_name_H-M   'P 1'
_cell_length_a   7.61842809
_cell_length_b   7.61842809
_cell_length_c   4.48465269
_cell_angle_alpha   90.00000000
_cell_angle_beta   90.00000000
_cell_angle_gamma   90.00000000
_symmetry_Int_Tables_number   1
_chemical_formula_structural   NaCl
_chemical_formula_sum   'Na4 Cl4'
_cell_volume   260.29124481
_cell_formula_units_Z   4
loop_
 _symmetry_equiv_pos_site_id
 _symmetry_equiv_pos_as_xyz
  1  'x, y, z'
loop_
 _atom_site_type_symbol
 _atom_site_label
 _atom_site_symmetry_multiplicity
 _atom_site_fract_x
 _atom_site_fract_y
 _atom_site_fract_z
 _atom_site_occupancy
  Na  Na0  1  0.71170542  0.81233584  0.64378045  1.0
  Na  Na1  1  0.08583458  0.75929052  0.10933030  1.0
  Na  Na2  1  0.12078122  0.52583079  0.52915305  1.0
  Na  Na3  1  0.51161890  0.48382096  0.86863262  1.0
  Cl  Cl4  1  0.18402948  0.06425533  0.42260997  1.0
  Cl  Cl5  1  0.47125274  0.33271165  0.15761491  1.0
  Cl  Cl6  1  0.15292568  0.12795412  0.71191385  1.0
  Cl  Cl7  1  0.02388507  0.94881040  0.77020279  1.0
