# generated using pymatgen
data_NaCl
_symmetry_space_group_name_H-M   'P 1'
_cell_length_a   6.49765917
_cell_length_b   6.49765917
_cell_length_c   6.49765917
_cell_angle_alpha   90.00000000
_cell_angle_beta   90.00000000
_cell_angle_gamma   90.00000000
_symmetry_Int_Tables_number   1
_chemical_formula_structural   NaCl
_chemical_formula_sum   'Na4 Cl4'
_cell_volume   274.32840663
_cell_formula_units_Z   4
loop_
 _symmetry_equiv_pos_site_id
 _symmetry_equiv_pos_as_xyz
  1  'x, y, z'
loop_
 _atom_site_type_symbol
 _atom_site_label
 _atom_site_symmetry_multiplicity
 _atom_site_fract_x
 _atom_site_fract_y
 _atom_site_fract_z
 _atom_site_occupancy
  Na  Na0  1  0.60617486  0.60617486  0.60617486  1.0
  Na  Na1  1  0.60019750  0.10019750  0.39980250  1.0
  Na  Na2  1  0.31156661  0.18843339  0.81156661  1.0
  Na  Na3  1  0.72286821  0.27713179  0.77713179  1.0
  Cl  Cl4  1  0.06064192  0.06064192  0.06064192  1.0
  Cl  Cl5  1  0.01920221  0.51920221  0.98079779  1.0
  Cl  Cl6  1  0.70400493  0.79599507  0.20400493  1.0
  Cl  Cl7  1  0.62360393  0.37639607  0.87639607  1.0
