# generated using pymatgen
data_NaCl
_symmetry_space_group_name_H-M   'P 1'
_cell_length_a   7.48501076
_cell_length_b   7.48501076
_cell_length_c   2.00772124
_cell_angle_alpha   90.00000000
_cell_angle_beta   90.00000000
_cell_angle_gamma   90.00000000
_symmetry_Int_Tables_number   1
_chemical_formula_structural   NaCl
_chemical_formula_sum   'Na4 Cl4'
_cell_volume   112.48335761
_cell_formula_units_Z   4
loop_
 _symmetry_equiv_pos_site_id
 _symmetry_equiv_pos_as_xyz
  1  'x, y, z'
loop_
 _atom_site_type_symbol
 _atom_site_label
 _atom_site_symmetry_multiplicity
 _atom_site_fract_x
 _atom_site_fract_y
 _atom_site_fract_z
 _atom_site_occupancy
  Na  Na0  1  0.75345774  0.70966152  0.20955608  1.0
  Na  Na1  1  0.03286864  0.44534018  0.27165275  1.0
  Na  Na2  1  0.16681649  0.70615342  0.56543560  1.0
  Na  Na3  1  0.47882263  0.64694558  0.76834831  1.0
  Cl  Cl4  1  0.00014400  0.16205438  0.80020115  1.0
  Cl  Cl5  1  0.24753872  0.48115531  0.18937293  1.0
  Cl  Cl6  1  0.41478503  0.14536736  0.47787231  1.0
  Cl  Cl7  1  0.08517599  0.96941252  0.78677620  1.0
