# generated using pymatgen
data_NaCl
_symmetry_space_group_name_H-M   'P 1'
_cell_length_a   4.77579277
_cell_length_b   5.43387459
_cell_length_c   6.22434634
_cell_angle_alpha   90.00000000
_cell_angle_beta   90.00000000
_cell_angle_gamma   90.00000000
_symmetry_Int_Tables_number   1
_chemical_formula_structural   NaCl
_chemical_formula_sum   'Na4 Cl4'
_cell_volume   161.52837898
_cell_formula_units_Z   4
loop_
 _symmetry_equiv_pos_site_id
 _symmetry_equiv_pos_as_xyz
  1  'x, y, z'
loop_
 _atom_site_type_symbol
 _atom_site_label
 _atom_site_symmetry_multiplicity
 _atom_site_fract_x
 _atom_site_fract_y
 _atom_site_fract_z
 _atom_site_occupancy
  Na  Na0  1  0.50000000  0.48343009  0.95250401  1.0
  Na  Na1  1  0.50000000  0.15442840  0.13392727  1.0
  Na  Na2  1  0.50000000  0.90939355  0.29285250  1.0
  Na  Na3  1  0.50000000  0.90354012  0.05520199  1.0
  Cl  Cl4  1  0.00000000  0.00000000  0.06163054  1.0
  Cl  Cl5  1  0.00000000  0.50000000  0.70722669  1.0
  Cl  Cl6  1  0.00000000  0.00000000  0.32488281  1.0
  Cl  Cl7  1  0.00000000  0.50000000  0.14746787  1.0
