# generated using pymatgen
data_NaCl
_symmetry_space_group_name_H-M   'P 1'
_cell_length_a   6.23837966
_cell_length_b   6.23837966
_cell_length_c   4.66561256
_cell_angle_alpha   90.00000000
_cell_angle_beta   90.00000000
_cell_angle_gamma   90.00000000
_symmetry_Int_Tables_number   1
_chemical_formula_structural   NaCl
_chemical_formula_sum   'Na4 Cl4'
_cell_volume   181.57342058
_cell_formula_units_Z   4
loop_
 _symmetry_equiv_pos_site_id
 _symmetry_equiv_pos_as_xyz
  1  'x, y, z'
loop_
 _atom_site_type_symbol
 _atom_site_label
 _atom_site_symmetry_multiplicity
 _atom_site_fract_x
 _atom_site_fract_y
 _atom_site_fract_z
 _atom_site_occupancy
  Na  Na0  1  0.68333678  0.75017251  0.32888614  1.0
  Na  Na1  1  0.10489257  0.47847974  0.04411771  1.0
  Na  Na2  1  0.20691168  0.64844637  0.61939927  1.0
  Na  Na3  1  0.55021237  0.46519411  0.97750728  1.0
  Cl  Cl4  1  0.51101440  0.14461830  0.42812924  1.0
  Cl  Cl5  1  0.57214074  0.41540862  0.22295760  1.0
  Cl  Cl6  1  0.21481160  0.05639489  0.58784838  1.0
  Cl  Cl7  1  0.07956377  0.83944979  0.68444868  1.0
