# generated using pymatgen
data_NaCl
_symmetry_space_group_name_H-M   'P 1'
_cell_length_a   7.19271131
_cell_length_b   11.31696016
_cell_length_c   4.74018462
_cell_angle_alpha   90.00000000
_cell_angle_beta   90.00000000
_cell_angle_gamma   90.00000000
_symmetry_Int_Tables_number   1
_chemical_formula_structural   NaCl
_chemical_formula_sum   'Na4 Cl4'
_cell_volume   385.84926158
_cell_formula_units_Z   4
loop_
 _symmetry_equiv_pos_site_id
 _symmetry_equiv_pos_as_xyz
  1  'x, y, z'
loop_
 _atom_site_type_symbol
 _atom_site_label
 _atom_site_symmetry_multiplicity
 _atom_site_fract_x
 _atom_site_fract_y
 _atom_site_fract_z
 _atom_site_occupancy
  Na  Na0  1  0.00000000  0.00000000  0.05742651  1.0
  Na  Na1  1  0.50000000  0.00000000  0.76279828  1.0
  Na  Na2  1  0.25000000  0.96596149  0.94623115  1.0
  Na  Na3  1  0.75000000  0.55089421  0.56100415  1.0
  Cl  Cl4  1  0.11155734  0.14094551  0.59822793  1.0
  Cl  Cl5  1  0.17755766  0.48193456  0.73324635  1.0
  Cl  Cl6  1  0.72754870  0.00052870  0.66109014  1.0
  Cl  Cl7  1  0.87804735  0.11724908  0.27233138  1.0
