# generated using pymatgen
data_NaCl
_symmetry_space_group_name_H-M   'P 1'
_cell_length_a   5.46592862
_cell_length_b   14.48130389
_cell_length_c   3.69230613
_cell_angle_alpha   90.00000000
_cell_angle_beta   90.00000000
_cell_angle_gamma   90.00000000
_symmetry_Int_Tables_number   1
_chemical_formula_structural   NaCl
_chemical_formula_sum   'Na4 Cl4'
_cell_volume   292.25996269
_cell_formula_units_Z   4
loop_
 _symmetry_equiv_pos_site_id
 _symmetry_equiv_pos_as_xyz
  1  'x, y, z'
loop_
 _atom_site_type_symbol
 _atom_site_label
 _atom_site_symmetry_multiplicity
 _atom_site_fract_x
 _atom_site_fract_y
 _atom_site_fract_z
 _atom_site_occupancy
  Na  Na0  1  0.59760092  0.00000000  0.00000000  1.0
  Na  Na1  1  0.11388893  0.00000000  0.50000000  1.0
  Na  Na2  1  0.70197643  0.50000000  0.00000000  1.0
  Na  Na3  1  0.80901907  0.50000000  0.50000000  1.0
  Cl  Cl4  1  0.79226497  0.13580187  0.53729460  1.0
  Cl  Cl5  1  0.55561364  0.28718836  0.20719320  1.0
  Cl  Cl6  1  0.83112837  0.99990110  0.85009050  1.0
  Cl  Cl7  1  0.13575559  0.90591696  0.73375466  1.0
