# generated using pymatgen
data_NaCl
_symmetry_space_group_name_H-M   'P 1'
_cell_length_a   5.35038276
_cell_length_b   13.14419902
_cell_length_c   2.01751712
_cell_angle_alpha   90.00000000
_cell_angle_beta   59.67270282
_cell_angle_gamma   90.00000000
_symmetry_Int_Tables_number   1
_chemical_formula_structural   NaCl
_chemical_formula_sum   'Na4 Cl4'
_cell_volume   122.46868065
_cell_formula_units_Z   4
loop_
 _symmetry_equiv_pos_site_id
 _symmetry_equiv_pos_as_xyz
  1  'x, y, z'
loop_
 _atom_site_type_symbol
 _atom_site_label
 _atom_site_symmetry_multiplicity
 _atom_site_fract_x
 _atom_site_fract_y
 _atom_site_fract_z
 _atom_site_occupancy
  Na  Na0  1  0.81830106  0.62653068  0.19574856  1.0
  Na  Na1  1  0.93444783  0.33830311  0.40199630  1.0
  Na  Na2  1  0.63522017  0.83514614  0.88710966  1.0
  Na  Na3  1  0.09271013  0.47521796  0.88182459  1.0
  Cl  Cl4  1  0.06549257  0.06928956  0.24392221  1.0
  Cl  Cl5  1  0.56231865  0.26600826  0.05915297  1.0
  Cl  Cl6  1  0.24394501  0.99891946  0.80380420  1.0
  Cl  Cl7  1  0.00038543  0.81657345  0.74133522  1.0
