# generated using pymatgen
data_NaCl
_symmetry_space_group_name_H-M   'P 1'
_cell_length_a   6.59756687
_cell_length_b   12.26364250
_cell_length_c   2.87753552
_cell_angle_alpha   90.00000000
_cell_angle_beta   52.06936092
_cell_angle_gamma   90.00000000
_symmetry_Int_Tables_number   1
_chemical_formula_structural   NaCl
_chemical_formula_sum   'Na4 Cl4'
_cell_volume   183.63961182
_cell_formula_units_Z   4
loop_
 _symmetry_equiv_pos_site_id
 _symmetry_equiv_pos_as_xyz
  1  'x, y, z'
loop_
 _atom_site_type_symbol
 _atom_site_label
 _atom_site_symmetry_multiplicity
 _atom_site_fract_x
 _atom_site_fract_y
 _atom_site_fract_z
 _atom_site_occupancy
  Na  Na0  1  0.61107801  0.23999516  0.22126941  1.0
  Na  Na1  1  0.92815529  0.53645770  0.12414664  1.0
  Na  Na2  1  0.68222189  0.76718112  0.83752547  1.0
  Na  Na3  1  0.49599095  0.56362629  0.01524421  1.0
  Cl  Cl4  1  0.04915667  0.70240370  0.55830170  1.0
  Cl  Cl5  1  0.47277337  0.30626311  0.16975548  1.0
  Cl  Cl6  1  0.20469809  0.88229651  0.87239616  1.0
  Cl  Cl7  1  0.11347980  0.79080747  0.75610680  1.0
