# generated using pymatgen
data_NaCl
_symmetry_space_group_name_H-M   'P 1'
_cell_length_a   3.06382985
_cell_length_b   3.06382985
_cell_length_c   21.44143494
_cell_angle_alpha   90.00000000
_cell_angle_beta   90.00000000
_cell_angle_gamma   90.00000000
_symmetry_Int_Tables_number   1
_chemical_formula_structural   NaCl
_chemical_formula_sum   'Na4 Cl4'
_cell_volume   201.27189368
_cell_formula_units_Z   4
loop_
 _symmetry_equiv_pos_site_id
 _symmetry_equiv_pos_as_xyz
  1  'x, y, z'
loop_
 _atom_site_type_symbol
 _atom_site_label
 _atom_site_symmetry_multiplicity
 _atom_site_fract_x
 _atom_site_fract_y
 _atom_site_fract_z
 _atom_site_occupancy
  Na  Na0  1  0.50000000  0.50710907  0.00000000  1.0
  Na  Na1  1  0.50000000  0.35740799  0.50000000  1.0
  Na  Na2  1  0.15367493  0.50000000  0.25000000  1.0
  Na  Na3  1  0.59536896  0.50000000  0.75000000  1.0
  Cl  Cl4  1  0.00000000  0.09512343  0.00000000  1.0
  Cl  Cl5  1  0.00000000  0.37085705  0.50000000  1.0
  Cl  Cl6  1  0.99924709  0.00000000  0.25000000  1.0
  Cl  Cl7  1  0.05712995  0.00000000  0.75000000  1.0
