# generated using pymatgen
data_NaCl
_symmetry_space_group_name_H-M   'P 1'
_cell_length_a   5.05539886
_cell_length_b   14.09421396
_cell_length_c   5.28212566
_cell_angle_alpha   90.00000000
_cell_angle_beta   40.07053749
_cell_angle_gamma   90.00000000
_symmetry_Int_Tables_number   1
_chemical_formula_structural   NaCl
_chemical_formula_sum   'Na4 Cl4'
_cell_volume   242.27516878
_cell_formula_units_Z   4
loop_
 _symmetry_equiv_pos_site_id
 _symmetry_equiv_pos_as_xyz
  1  'x, y, z'
loop_
 _atom_site_type_symbol
 _atom_site_label
 _atom_site_symmetry_multiplicity
 _atom_site_fract_x
 _atom_site_fract_y
 _atom_site_fract_z
 _atom_site_occupancy
  Na  Na0  1  0.47130264  0.84365250  0.17556918  1.0
  Na  Na1  1  0.18685837  0.70863222  0.16772951  1.0
  Na  Na2  1  0.59082714  0.78918235  0.77340566  1.0
  Na  Na3  1  0.31723352  0.96827193  0.41068350  1.0
  Cl  Cl4  1  0.20015813  0.06418246  0.73910250  1.0
  Cl  Cl5  1  0.44337301  0.22555462  0.15758305  1.0
  Cl  Cl6  1  0.09907307  0.73401346  0.92370452  1.0
  Cl  Cl7  1  0.92300135  0.52954242  0.75666494  1.0
