# generated using pymatgen
data_NaCl
_symmetry_space_group_name_H-M   'P 1'
_cell_length_a   5.46764813
_cell_length_b   12.87295071
_cell_length_c   4.11245682
_cell_angle_alpha   90.00000000
_cell_angle_beta   90.00000000
_cell_angle_gamma   90.00000000
_symmetry_Int_Tables_number   1
_chemical_formula_structural   NaCl
_chemical_formula_sum   'Na4 Cl4'
_cell_volume   289.45430634
_cell_formula_units_Z   4
loop_
 _symmetry_equiv_pos_site_id
 _symmetry_equiv_pos_as_xyz
  1  'x, y, z'
loop_
 _atom_site_type_symbol
 _atom_site_label
 _atom_site_symmetry_multiplicity
 _atom_site_fract_x
 _atom_site_fract_y
 _atom_site_fract_z
 _atom_site_occupancy
  Na  Na0  1  0.73700693  0.38090507  0.56844454  1.0
  Na  Na1  1  0.06125671  0.67344508  0.42612498  1.0
  Na  Na2  1  0.16112476  0.12906459  0.90125714  1.0
  Na  Na3  1  0.06483451  0.37666174  0.90422809  1.0
  Cl  Cl4  1  0.09145770  0.00104595  0.78159343  1.0
  Cl  Cl5  1  0.20770626  0.47475227  0.19086739  1.0
  Cl  Cl6  1  0.60793385  0.39125697  0.88364632  1.0
  Cl  Cl7  1  0.49856746  0.03464482  0.68652475  1.0
