# generated using pymatgen
data_NaCl
_symmetry_space_group_name_H-M   'P 1'
_cell_length_a   5.57357672
_cell_length_b   5.57357672
_cell_length_c   4.30556037
_cell_angle_alpha   90.00000000
_cell_angle_beta   90.00000000
_cell_angle_gamma   90.00000000
_symmetry_Int_Tables_number   1
_chemical_formula_structural   NaCl
_chemical_formula_sum   'Na4 Cl4'
_cell_volume   133.75118860
_cell_formula_units_Z   4
loop_
 _symmetry_equiv_pos_site_id
 _symmetry_equiv_pos_as_xyz
  1  'x, y, z'
loop_
 _atom_site_type_symbol
 _atom_site_label
 _atom_site_symmetry_multiplicity
 _atom_site_fract_x
 _atom_site_fract_y
 _atom_site_fract_z
 _atom_site_occupancy
  Na  Na0  1  0.65152310  0.56830139  0.20967215  1.0
  Na  Na1  1  0.06699739  0.87340071  0.13348422  1.0
  Na  Na2  1  0.09360369  0.76892647  0.62266108  1.0
  Na  Na3  1  0.52440277  0.46822739  0.44117530  1.0
  Cl  Cl4  1  0.00125383  0.09445968  0.64235205  1.0
  Cl  Cl5  1  0.18726682  0.27206932  0.38440163  1.0
  Cl  Cl6  1  0.12406792  0.56753231  0.70859729  1.0
  Cl  Cl7  1  0.09447103  0.95533926  0.44625462  1.0
