# generated using pymatgen
data_NaCl
_symmetry_space_group_name_H-M   'P 1'
_cell_length_a   8.21710370
_cell_length_b   8.21710370
_cell_length_c   2.48042350
_cell_angle_alpha   90.00000000
_cell_angle_beta   90.00000000
_cell_angle_gamma   90.00000000
_symmetry_Int_Tables_number   1
_chemical_formula_structural   NaCl
_chemical_formula_sum   'Na4 Cl4'
_cell_volume   167.48016223
_cell_formula_units_Z   4
loop_
 _symmetry_equiv_pos_site_id
 _symmetry_equiv_pos_as_xyz
  1  'x, y, z'
loop_
 _atom_site_type_symbol
 _atom_site_label
 _atom_site_symmetry_multiplicity
 _atom_site_fract_x
 _atom_site_fract_y
 _atom_site_fract_z
 _atom_site_occupancy
  Na  Na0  1  0.64786240  0.65793705  0.23430106  1.0
  Na  Na1  1  0.11724837  0.51933476  0.31162934  1.0
  Na  Na2  1  0.26397210  0.68539451  0.58490544  1.0
  Na  Na3  1  0.37253215  0.79739950  0.84719035  1.0
  Cl  Cl4  1  0.10194391  0.14780306  0.67072134  1.0
  Cl  Cl5  1  0.57246068  0.44383137  0.14337988  1.0
  Cl  Cl6  1  0.14544437  0.29118061  0.54044599  1.0
  Cl  Cl7  1  0.11712381  0.86962806  0.52185052  1.0
