# generated using pymatgen
data_NaCl
_symmetry_space_group_name_H-M   'P 1'
_cell_length_a   3.50100687
_cell_length_b   15.40263242
_cell_length_c   4.40227662
_cell_angle_alpha   90.00000000
_cell_angle_beta   90.00000000
_cell_angle_gamma   90.00000000
_symmetry_Int_Tables_number   1
_chemical_formula_structural   NaCl
_chemical_formula_sum   'Na4 Cl4'
_cell_volume   237.39154254
_cell_formula_units_Z   4
loop_
 _symmetry_equiv_pos_site_id
 _symmetry_equiv_pos_as_xyz
  1  'x, y, z'
loop_
 _atom_site_type_symbol
 _atom_site_label
 _atom_site_symmetry_multiplicity
 _atom_site_fract_x
 _atom_site_fract_y
 _atom_site_fract_z
 _atom_site_occupancy
  Na  Na0  1  0.25000000  0.67629060  0.10742499  1.0
  Na  Na1  1  0.75000000  0.47050494  0.75609347  1.0
  Na  Na2  1  0.75000000  0.41967432  0.31019707  1.0
  Na  Na3  1  0.25000000  0.13889140  0.10154236  1.0
  Cl  Cl4  1  0.00000000  0.00000000  0.50730828  1.0
  Cl  Cl5  1  0.50000000  0.00000000  0.60820759  1.0
  Cl  Cl6  1  0.50000000  0.50000000  0.33696060  1.0
  Cl  Cl7  1  0.00000000  0.50000000  0.55751527  1.0
