# generated using pymatgen
data_NaCl
_symmetry_space_group_name_H-M   'P 1'
_cell_length_a   7.80404871
_cell_length_b   15.75383811
_cell_length_c   3.01735391
_cell_angle_alpha   90.00000000
_cell_angle_beta   90.00000000
_cell_angle_gamma   90.00000000
_symmetry_Int_Tables_number   1
_chemical_formula_structural   NaCl
_chemical_formula_sum   'Na4 Cl4'
_cell_volume   370.96471419
_cell_formula_units_Z   4
loop_
 _symmetry_equiv_pos_site_id
 _symmetry_equiv_pos_as_xyz
  1  'x, y, z'
loop_
 _atom_site_type_symbol
 _atom_site_label
 _atom_site_symmetry_multiplicity
 _atom_site_fract_x
 _atom_site_fract_y
 _atom_site_fract_z
 _atom_site_occupancy
  Na  Na0  1  0.00000000  0.00000000  0.10981765  1.0
  Na  Na1  1  0.50000000  0.50000000  0.41512233  1.0
  Na  Na2  1  0.00000000  0.50000000  0.84894564  1.0
  Na  Na3  1  0.50000000  0.00000000  0.84392918  1.0
  Cl  Cl4  1  0.00000000  0.21666287  0.17470512  1.0
  Cl  Cl5  1  0.00000000  0.41661017  0.54184073  1.0
  Cl  Cl6  1  0.50000000  0.77083999  0.20522587  1.0
  Cl  Cl7  1  0.50000000  0.38966412  0.72328961  1.0
