# generated using pymatgen
data_NaCl
_symmetry_space_group_name_H-M   'P 1'
_cell_length_a   4.24317330
_cell_length_b   14.28615222
_cell_length_c   2.88643159
_cell_angle_alpha   90.00000000
_cell_angle_beta   90.00000000
_cell_angle_gamma   90.00000000
_symmetry_Int_Tables_number   1
_chemical_formula_structural   NaCl
_chemical_formula_sum   'Na4 Cl4'
_cell_volume   174.97149873
_cell_formula_units_Z   4
loop_
 _symmetry_equiv_pos_site_id
 _symmetry_equiv_pos_as_xyz
  1  'x, y, z'
loop_
 _atom_site_type_symbol
 _atom_site_label
 _atom_site_symmetry_multiplicity
 _atom_site_fract_x
 _atom_site_fract_y
 _atom_site_fract_z
 _atom_site_occupancy
  Na  Na0  1  0.51284460  0.61982031  0.14195962  1.0
  Na  Na1  1  0.50073617  0.37828185  0.33435798  1.0
  Na  Na2  1  0.23661631  0.47192303  0.70028383  1.0
  Na  Na3  1  0.78079491  0.82127153  0.50320076  1.0
  Cl  Cl4  1  0.25349941  0.12857910  0.46643086  1.0
  Cl  Cl5  1  0.70057749  0.56024337  0.21793884  1.0
  Cl  Cl6  1  0.87649475  0.50083319  0.58519409  1.0
  Cl  Cl7  1  0.71879281  0.48008163  0.33468761  1.0
