# generated using pymatgen
data_NaCl
_symmetry_space_group_name_H-M   'P 1'
_cell_length_a   4.07460222
_cell_length_b   16.17124514
_cell_length_c   4.07271989
_cell_angle_alpha   90.00000000
_cell_angle_beta   90.00000000
_cell_angle_gamma   90.00000000
_symmetry_Int_Tables_number   1
_chemical_formula_structural   NaCl
_chemical_formula_sum   'Na4 Cl4'
_cell_volume   268.35718012
_cell_formula_units_Z   4
loop_
 _symmetry_equiv_pos_site_id
 _symmetry_equiv_pos_as_xyz
  1  'x, y, z'
loop_
 _atom_site_type_symbol
 _atom_site_label
 _atom_site_symmetry_multiplicity
 _atom_site_fract_x
 _atom_site_fract_y
 _atom_site_fract_z
 _atom_site_occupancy
  Na  Na0  1  0.52864178  0.61394235  0.60459005  1.0
  Na  Na1  1  0.17372992  0.41202824  0.22230305  1.0
  Na  Na2  1  0.93614309  0.71918355  0.80316406  1.0
  Na  Na3  1  0.20326215  0.89916071  0.99577005  1.0
  Cl  Cl4  1  0.06493559  0.09268799  0.34087461  1.0
  Cl  Cl5  1  0.09205756  0.49325533  0.33745082  1.0
  Cl  Cl6  1  0.92096227  0.57526506  0.99946940  1.0
  Cl  Cl7  1  0.49977347  0.50033020  0.05656218  1.0
