# generated using pymatgen
data_NaCl
_symmetry_space_group_name_H-M   'P 1'
_cell_length_a   4.50138180
_cell_length_b   4.50138180
_cell_length_c   10.25798885
_cell_angle_alpha   90.00000000
_cell_angle_beta   90.00000000
_cell_angle_gamma   90.00000000
_symmetry_Int_Tables_number   1
_chemical_formula_structural   NaCl
_chemical_formula_sum   'Na4 Cl4'
_cell_volume   207.85186420
_cell_formula_units_Z   4
loop_
 _symmetry_equiv_pos_site_id
 _symmetry_equiv_pos_as_xyz
  1  'x, y, z'
loop_
 _atom_site_type_symbol
 _atom_site_label
 _atom_site_symmetry_multiplicity
 _atom_site_fract_x
 _atom_site_fract_y
 _atom_site_fract_z
 _atom_site_occupancy
  Na  Na0  1  0.78701563  0.78701563  0.00000000  1.0
  Na  Na1  1  0.26014309  0.26014309  0.50000000  1.0
  Na  Na2  1  0.77992846  0.22007154  0.25000000  1.0
  Na  Na3  1  0.00947657  0.99052343  0.75000000  1.0
  Cl  Cl4  1  0.04364088  0.04364088  0.00000000  1.0
  Cl  Cl5  1  0.62321432  0.62321432  0.50000000  1.0
  Cl  Cl6  1  0.43542768  0.56457232  0.25000000  1.0
  Cl  Cl7  1  0.76033845  0.23966155  0.75000000  1.0
