# generated using pymatgen
data_NaCl
_symmetry_space_group_name_H-M   'P 1'
_cell_length_a   5.28496659
_cell_length_b   12.53245055
_cell_length_c   2.94150054
_cell_angle_alpha   90.00000000
_cell_angle_beta   90.00000000
_cell_angle_gamma   90.00000000
_symmetry_Int_Tables_number   1
_chemical_formula_structural   NaCl
_chemical_formula_sum   'Na4 Cl4'
_cell_volume   194.82611854
_cell_formula_units_Z   4
loop_
 _symmetry_equiv_pos_site_id
 _symmetry_equiv_pos_as_xyz
  1  'x, y, z'
loop_
 _atom_site_type_symbol
 _atom_site_label
 _atom_site_symmetry_multiplicity
 _atom_site_fract_x
 _atom_site_fract_y
 _atom_site_fract_z
 _atom_site_occupancy
  Na  Na0  1  0.00000000  0.00000000  0.18593536  1.0
  Na  Na1  1  0.50000000  0.00000000  0.66302055  1.0
  Na  Na2  1  0.25000000  0.75097705  0.84057016  1.0
  Na  Na3  1  0.75000000  0.57316797  0.54981922  1.0
  Cl  Cl4  1  0.00228214  0.17849298  0.65762958  1.0
  Cl  Cl5  1  0.56860962  0.21712981  0.77274440  1.0
  Cl  Cl6  1  0.85992437  0.08953868  0.87085679  1.0
  Cl  Cl7  1  0.31864556  0.12733714  0.24954602  1.0
