# generated using pymatgen
data_NaCl
_symmetry_space_group_name_H-M   'P 1'
_cell_length_a   4.30657308
_cell_length_b   9.66070031
_cell_length_c   11.87258131
_cell_angle_alpha   90.00000000
_cell_angle_beta   143.63730417
_cell_angle_gamma   90.00000000
_symmetry_Int_Tables_number   1
_chemical_formula_structural   NaCl
_chemical_formula_sum   'Na4 Cl4'
_cell_volume   292.86209127
_cell_formula_units_Z   4
loop_
 _symmetry_equiv_pos_site_id
 _symmetry_equiv_pos_as_xyz
  1  'x, y, z'
loop_
 _atom_site_type_symbol
 _atom_site_label
 _atom_site_symmetry_multiplicity
 _atom_site_fract_x
 _atom_site_fract_y
 _atom_site_fract_z
 _atom_site_occupancy
  Na  Na0  1  0.83415544  0.39312840  0.96579254  1.0
  Na  Na1  1  0.68887602  0.26614401  0.62751573  1.0
  Na  Na2  1  0.50001437  0.81766270  0.03328645  1.0
  Na  Na3  1  0.63086839  0.39109531  0.70162917  1.0
  Cl  Cl4  1  0.03657365  0.18684564  0.19092411  1.0
  Cl  Cl5  1  0.63816679  0.13788394  0.86512823  1.0
  Cl  Cl6  1  0.41488025  0.97726561  0.55058717  1.0
  Cl  Cl7  1  0.70620256  0.18267841  0.21242229  1.0
