# generated using pymatgen
data_NaCl
_symmetry_space_group_name_H-M   'P 1'
_cell_length_a   6.03635230
_cell_length_b   13.96129470
_cell_length_c   2.89759321
_cell_angle_alpha   90.00000000
_cell_angle_beta   90.00000000
_cell_angle_gamma   90.00000000
_symmetry_Int_Tables_number   1
_chemical_formula_structural   NaCl
_chemical_formula_sum   'Na4 Cl4'
_cell_volume   244.19551785
_cell_formula_units_Z   4
loop_
 _symmetry_equiv_pos_site_id
 _symmetry_equiv_pos_as_xyz
  1  'x, y, z'
loop_
 _atom_site_type_symbol
 _atom_site_label
 _atom_site_symmetry_multiplicity
 _atom_site_fract_x
 _atom_site_fract_y
 _atom_site_fract_z
 _atom_site_occupancy
  Na  Na0  1  0.00000000  0.50000000  0.92983536  1.0
  Na  Na1  1  0.50000000  0.50000000  0.52914826  1.0
  Na  Na2  1  0.25000000  0.74566261  0.92199495  1.0
  Na  Na3  1  0.75000000  0.61784912  0.49904396  1.0
  Cl  Cl4  1  0.03784274  0.09464645  0.95427562  1.0
  Cl  Cl5  1  0.21349394  0.35337809  0.75586476  1.0
  Cl  Cl6  1  0.54433881  0.22187746  0.88786427  1.0
  Cl  Cl7  1  0.23508468  0.98250315  0.25747751  1.0
