# generated using pymatgen
data_NaCl
_symmetry_space_group_name_H-M   'P 1'
_cell_length_a   3.62554273
_cell_length_b   13.51457864
_cell_length_c   5.46366151
_cell_angle_alpha   90.00000000
_cell_angle_beta   90.00000000
_cell_angle_gamma   90.00000000
_symmetry_Int_Tables_number   1
_chemical_formula_structural   NaCl
_chemical_formula_sum   'Na4 Cl4'
_cell_volume   267.70675107
_cell_formula_units_Z   4
loop_
 _symmetry_equiv_pos_site_id
 _symmetry_equiv_pos_as_xyz
  1  'x, y, z'
loop_
 _atom_site_type_symbol
 _atom_site_label
 _atom_site_symmetry_multiplicity
 _atom_site_fract_x
 _atom_site_fract_y
 _atom_site_fract_z
 _atom_site_occupancy
  Na  Na0  1  0.00000000  0.00000000  0.11664273  1.0
  Na  Na1  1  0.50000000  0.50000000  0.24548236  1.0
  Na  Na2  1  0.00000000  0.50000000  0.86306395  1.0
  Na  Na3  1  0.50000000  0.00000000  0.60469490  1.0
  Cl  Cl4  1  0.04872242  0.11861880  0.60352446  1.0
  Cl  Cl5  1  0.42366550  0.32239492  0.67552168  1.0
  Cl  Cl6  1  0.33429008  0.53956341  0.65765685  1.0
  Cl  Cl7  1  0.59820643  0.44455950  0.80824473  1.0
