# generated using pymatgen
data_NaCl
_symmetry_space_group_name_H-M   'P 1'
_cell_length_a   4.27719968
_cell_length_b   12.15912752
_cell_length_c   4.12572529
_cell_angle_alpha   90.00000000
_cell_angle_beta   66.22616486
_cell_angle_gamma   90.00000000
_symmetry_Int_Tables_number   1
_chemical_formula_structural   NaCl
_chemical_formula_sum   'Na4 Cl4'
_cell_volume   196.35936308
_cell_formula_units_Z   4
loop_
 _symmetry_equiv_pos_site_id
 _symmetry_equiv_pos_as_xyz
  1  'x, y, z'
loop_
 _atom_site_type_symbol
 _atom_site_label
 _atom_site_symmetry_multiplicity
 _atom_site_fract_x
 _atom_site_fract_y
 _atom_site_fract_z
 _atom_site_occupancy
  Na  Na0  1  0.68711875  0.19722211  0.19714827  1.0
  Na  Na1  1  0.07687879  0.04236608  0.33661409  1.0
  Na  Na2  1  0.63022491  0.74654649  0.81227567  1.0
  Na  Na3  1  0.50710212  0.84694662  0.37800950  1.0
  Cl  Cl4  1  0.05289900  0.11095005  0.58585546  1.0
  Cl  Cl5  1  0.20519949  0.24758894  0.18884730  1.0
  Cl  Cl6  1  0.31592848  0.90783874  0.86925070  1.0
  Cl  Cl7  1  0.90310103  0.62739889  0.80370860  1.0
