# generated using pymatgen
data_NaCl
_symmetry_space_group_name_H-M   'P 1'
_cell_length_a   5.88659210
_cell_length_b   14.41519671
_cell_length_c   3.52430289
_cell_angle_alpha   90.00000000
_cell_angle_beta   90.00000000
_cell_angle_gamma   90.00000000
_symmetry_Int_Tables_number   1
_chemical_formula_structural   NaCl
_chemical_formula_sum   'Na4 Cl4'
_cell_volume   299.05959610
_cell_formula_units_Z   4
loop_
 _symmetry_equiv_pos_site_id
 _symmetry_equiv_pos_as_xyz
  1  'x, y, z'
loop_
 _atom_site_type_symbol
 _atom_site_label
 _atom_site_symmetry_multiplicity
 _atom_site_fract_x
 _atom_site_fract_y
 _atom_site_fract_z
 _atom_site_occupancy
  Na  Na0  1  0.67079152  0.80117241  0.24550425  1.0
  Na  Na1  1  0.16688482  0.64076307  0.24180874  1.0
  Na  Na2  1  0.45830224  0.13914154  0.79523371  1.0
  Na  Na3  1  0.03439069  0.34017857  0.97996928  1.0
  Cl  Cl4  1  0.14875650  0.21163161  0.48443002  1.0
  Cl  Cl5  1  0.25192952  0.41628704  0.11835963  1.0
  Cl  Cl6  1  0.71657274  0.07585985  0.87450681  1.0
  Cl  Cl7  1  0.49994880  0.08467274  0.55522643  1.0
