# generated using pymatgen
data_NaCl
_symmetry_space_group_name_H-M   'P 1'
_cell_length_a   6.43835984
_cell_length_b   11.98934682
_cell_length_c   2.95074888
_cell_angle_alpha   90.00000000
_cell_angle_beta   61.97621103
_cell_angle_gamma   90.00000000
_symmetry_Int_Tables_number   1
_chemical_formula_structural   NaCl
_chemical_formula_sum   'Na4 Cl4'
_cell_volume   201.06756688
_cell_formula_units_Z   4
loop_
 _symmetry_equiv_pos_site_id
 _symmetry_equiv_pos_as_xyz
  1  'x, y, z'
loop_
 _atom_site_type_symbol
 _atom_site_label
 _atom_site_symmetry_multiplicity
 _atom_site_fract_x
 _atom_site_fract_y
 _atom_site_fract_z
 _atom_site_occupancy
  Na  Na0  1  0.63935448  0.56766234  0.10849837  1.0
  Na  Na1  1  0.86937693  0.45134980  0.33644795  1.0
  Na  Na2  1  0.21214113  0.33739731  0.89154639  1.0
  Na  Na3  1  0.75436196  0.05506661  0.04108980  1.0
  Cl  Cl4  1  0.11736454  0.18931719  0.62266206  1.0
  Cl  Cl5  1  0.45592766  0.33639466  0.12992934  1.0
  Cl  Cl6  1  0.66396152  0.45049174  0.70687127  1.0
  Cl  Cl7  1  0.63490040  0.35883771  0.89286834  1.0
