# generated using pymatgen
data_NaCl
_symmetry_space_group_name_H-M   'P 1'
_cell_length_a   5.30331799
_cell_length_b   5.30331799
_cell_length_c   9.21019706
_cell_angle_alpha   90.00000000
_cell_angle_beta   90.00000000
_cell_angle_gamma   90.00000000
_symmetry_Int_Tables_number   1
_chemical_formula_structural   NaCl
_chemical_formula_sum   'Na4 Cl4'
_cell_volume   259.03846583
_cell_formula_units_Z   4
loop_
 _symmetry_equiv_pos_site_id
 _symmetry_equiv_pos_as_xyz
  1  'x, y, z'
loop_
 _atom_site_type_symbol
 _atom_site_label
 _atom_site_symmetry_multiplicity
 _atom_site_fract_x
 _atom_site_fract_y
 _atom_site_fract_z
 _atom_site_occupancy
  Na  Na0  1  0.89572963  0.48358836  0.62391599  1.0
  Na  Na1  1  0.54819901  0.97953579  0.87458013  1.0
  Na  Na2  1  0.01964149  0.38952945  0.47250507  1.0
  Na  Na3  1  0.26375678  0.70747932  0.48287923  1.0
  Cl  Cl4  1  0.28309241  0.90278272  0.34627041  1.0
  Cl  Cl5  1  0.23561975  0.65507807  0.14098484  1.0
  Cl  Cl6  1  0.42023044  0.45537091  0.63036236  1.0
  Cl  Cl7  1  0.11533607  0.72699501  0.65327227  1.0
