# generated using pymatgen
data_NaCl
_symmetry_space_group_name_H-M   'P 1'
_cell_length_a   5.71965619
_cell_length_b   16.31704894
_cell_length_c   3.34650406
_cell_angle_alpha   90.00000000
_cell_angle_beta   90.00000000
_cell_angle_gamma   90.00000000
_symmetry_Int_Tables_number   1
_chemical_formula_structural   NaCl
_chemical_formula_sum   'Na4 Cl4'
_cell_volume   312.32222963
_cell_formula_units_Z   4
loop_
 _symmetry_equiv_pos_site_id
 _symmetry_equiv_pos_as_xyz
  1  'x, y, z'
loop_
 _atom_site_type_symbol
 _atom_site_label
 _atom_site_symmetry_multiplicity
 _atom_site_fract_x
 _atom_site_fract_y
 _atom_site_fract_z
 _atom_site_occupancy
  Na  Na0  1  0.00000000  0.48125929  0.75033257  1.0
  Na  Na1  1  0.00000000  0.90937334  0.55555820  1.0
  Na  Na2  1  0.50000000  0.79921335  0.40693236  1.0
  Na  Na3  1  0.50000000  0.87669989  0.85320557  1.0
  Cl  Cl4  1  0.14485632  0.93133012  0.31009478  1.0
  Cl  Cl5  1  0.61819148  0.67243864  0.10878042  1.0
  Cl  Cl6  1  0.69427871  0.27178190  0.38908384  1.0
  Cl  Cl7  1  0.61075948  0.35615355  0.68680016  1.0
