# generated using pymatgen
data_NaCl
_symmetry_space_group_name_H-M   'P 1'
_cell_length_a   5.45230662
_cell_length_b   5.45230662
_cell_length_c   5.45230662
_cell_angle_alpha   90.00000000
_cell_angle_beta   90.00000000
_cell_angle_gamma   90.00000000
_symmetry_Int_Tables_number   1
_chemical_formula_structural   NaCl
_chemical_formula_sum   'Na4 Cl4'
_cell_volume   162.08424914
_cell_formula_units_Z   4
loop_
 _symmetry_equiv_pos_site_id
 _symmetry_equiv_pos_as_xyz
  1  'x, y, z'
loop_
 _atom_site_type_symbol
 _atom_site_label
 _atom_site_symmetry_multiplicity
 _atom_site_fract_x
 _atom_site_fract_y
 _atom_site_fract_z
 _atom_site_occupancy
  Na  Na0  1  0.62616668  0.62616668  0.62616668  1.0
  Na  Na1  1  0.34315671  0.84315671  0.65684329  1.0
  Na  Na2  1  0.61455303  0.88544697  0.11455303  1.0
  Na  Na3  1  0.79118639  0.20881361  0.70881361  1.0
  Cl  Cl4  1  0.14762193  0.14762193  0.14762193  1.0
  Cl  Cl5  1  0.87817296  0.37817296  0.12182704  1.0
  Cl  Cl6  1  0.12047626  0.37952374  0.62047626  1.0
  Cl  Cl7  1  0.66629387  0.33370613  0.83370613  1.0
