# generated using pymatgen
data_NaCl
_symmetry_space_group_name_H-M   'P 1'
_cell_length_a   6.30152105
_cell_length_b   19.53361994
_cell_length_c   4.81922751
_cell_angle_alpha   90.00000000
_cell_angle_beta   20.02094291
_cell_angle_gamma   90.00000000
_symmetry_Int_Tables_number   1
_chemical_formula_structural   NaCl
_chemical_formula_sum   'Na4 Cl4'
_cell_volume   203.09215033
_cell_formula_units_Z   4
loop_
 _symmetry_equiv_pos_site_id
 _symmetry_equiv_pos_as_xyz
  1  'x, y, z'
loop_
 _atom_site_type_symbol
 _atom_site_label
 _atom_site_symmetry_multiplicity
 _atom_site_fract_x
 _atom_site_fract_y
 _atom_site_fract_z
 _atom_site_occupancy
  Na  Na0  1  0.50131694  0.66637956  0.73261983  1.0
  Na  Na1  1  0.54087922  0.76960166  0.04764001  1.0
  Na  Na2  1  0.70920871  0.16356506  0.43062397  1.0
  Na  Na3  1  0.91977415  0.55105987  0.18255959  1.0
  Cl  Cl4  1  0.63861308  0.00000000  0.22428938  1.0
  Cl  Cl5  1  0.80652406  0.50000000  0.45526291  1.0
  Cl  Cl6  1  0.34598103  0.00000000  0.94595983  1.0
  Cl  Cl7  1  0.99480171  0.50000000  0.66896552  1.0
