# generated using pymatgen
data_NaCl
_symmetry_space_group_name_H-M   'P 1'
_cell_length_a   9.10383190
_cell_length_b   9.10383190
_cell_length_c   2.01513419
_cell_angle_alpha   90.00000000
_cell_angle_beta   90.00000000
_cell_angle_gamma   90.00000000
_symmetry_Int_Tables_number   1
_chemical_formula_structural   NaCl
_chemical_formula_sum   'Na4 Cl4'
_cell_volume   167.01382849
_cell_formula_units_Z   4
loop_
 _symmetry_equiv_pos_site_id
 _symmetry_equiv_pos_as_xyz
  1  'x, y, z'
loop_
 _atom_site_type_symbol
 _atom_site_label
 _atom_site_symmetry_multiplicity
 _atom_site_fract_x
 _atom_site_fract_y
 _atom_site_fract_z
 _atom_site_occupancy
  Na  Na0  1  0.87081864  0.87081864  0.00000000  1.0
  Na  Na1  1  0.23152336  0.23152336  0.50000000  1.0
  Na  Na2  1  0.05180725  0.94819275  0.75000000  1.0
  Na  Na3  1  0.81952380  0.18047620  0.25000000  1.0
  Cl  Cl4  1  0.16825162  0.16825162  0.00000000  1.0
  Cl  Cl5  1  0.52462622  0.52462622  0.50000000  1.0
  Cl  Cl6  1  0.57266541  0.42733459  0.75000000  1.0
  Cl  Cl7  1  0.55486308  0.44513692  0.25000000  1.0
