# generated using pymatgen
data_NaCl
_symmetry_space_group_name_H-M   'P 1'
_cell_length_a   2.67992164
_cell_length_b   15.24972385
_cell_length_c   9.81832723
_cell_angle_alpha   90.00000000
_cell_angle_beta   90.00000000
_cell_angle_gamma   90.00000000
_symmetry_Int_Tables_number   1
_chemical_formula_structural   NaCl
_chemical_formula_sum   'Na4 Cl4'
_cell_volume   401.25603493
_cell_formula_units_Z   4
loop_
 _symmetry_equiv_pos_site_id
 _symmetry_equiv_pos_as_xyz
  1  'x, y, z'
loop_
 _atom_site_type_symbol
 _atom_site_label
 _atom_site_symmetry_multiplicity
 _atom_site_fract_x
 _atom_site_fract_y
 _atom_site_fract_z
 _atom_site_occupancy
  Na  Na0  1  0.72676900  0.66256605  0.94680599  1.0
  Na  Na1  1  0.79369882  0.54765229  0.69554628  1.0
  Na  Na2  1  0.61427503  0.27599583  0.86783373  1.0
  Na  Na3  1  0.85384398  0.39435567  0.00010166  1.0
  Cl  Cl4  1  0.00000000  0.76629366  0.52805513  1.0
  Cl  Cl5  1  0.50000000  0.25690373  0.15551544  1.0
  Cl  Cl6  1  0.00000000  0.13942055  0.99853682  1.0
  Cl  Cl7  1  0.50000000  0.04889740  0.02881729  1.0
