# generated using pymatgen
data_NaCl
_symmetry_space_group_name_H-M   'P 1'
_cell_length_a   4.63180162
_cell_length_b   14.90044444
_cell_length_c   4.18022519
_cell_angle_alpha   90.00000000
_cell_angle_beta   90.00000000
_cell_angle_gamma   90.00000000
_symmetry_Int_Tables_number   1
_chemical_formula_structural   NaCl
_chemical_formula_sum   'Na4 Cl4'
_cell_volume   288.50201496
_cell_formula_units_Z   4
loop_
 _symmetry_equiv_pos_site_id
 _symmetry_equiv_pos_as_xyz
  1  'x, y, z'
loop_
 _atom_site_type_symbol
 _atom_site_label
 _atom_site_symmetry_multiplicity
 _atom_site_fract_x
 _atom_site_fract_y
 _atom_site_fract_z
 _atom_site_occupancy
  Na  Na0  1  0.25000000  0.39383033  0.59192758  1.0
  Na  Na1  1  0.75000000  0.99963128  0.10314838  1.0
  Na  Na2  1  0.25000000  0.32695932  0.80339344  1.0
  Na  Na3  1  0.75000000  0.71231996  0.92997206  1.0
  Cl  Cl4  1  0.25000000  0.78595445  0.02301379  1.0
  Cl  Cl5  1  0.75000000  0.39354547  0.58428525  1.0
  Cl  Cl6  1  0.25000000  0.97428260  0.41654585  1.0
  Cl  Cl7  1  0.75000000  0.15067501  0.13899854  1.0
