# generated using pymatgen
data_NaCl
_symmetry_space_group_name_H-M   'P 1'
_cell_length_a   5.62364987
_cell_length_b   5.62364987
_cell_length_c   8.96713174
_cell_angle_alpha   90.00000000
_cell_angle_beta   90.00000000
_cell_angle_gamma   90.00000000
_symmetry_Int_Tables_number   1
_chemical_formula_structural   NaCl
_chemical_formula_sum   'Na4 Cl4'
_cell_volume   283.58946763
_cell_formula_units_Z   4
loop_
 _symmetry_equiv_pos_site_id
 _symmetry_equiv_pos_as_xyz
  1  'x, y, z'
loop_
 _atom_site_type_symbol
 _atom_site_label
 _atom_site_symmetry_multiplicity
 _atom_site_fract_x
 _atom_site_fract_y
 _atom_site_fract_z
 _atom_site_occupancy
  Na  Na0  1  0.87500961  0.48960065  0.78538397  1.0
  Na  Na1  1  0.54032446  0.98140075  0.82967000  1.0
  Na  Na2  1  0.03424311  0.41139522  0.90086716  1.0
  Na  Na3  1  0.21334284  0.84151123  0.93491817  1.0
  Cl  Cl4  1  0.19677510  0.97946995  0.42170870  1.0
  Cl  Cl5  1  0.29500373  0.62683303  0.09463991  1.0
  Cl  Cl6  1  0.47638922  0.50843332  0.18864062  1.0
  Cl  Cl7  1  0.26231961  0.80949387  0.24835458  1.0
