# generated using pymatgen
data_NaCl
_symmetry_space_group_name_H-M   'P 1'
_cell_length_a   4.41470142
_cell_length_b   18.91906045
_cell_length_c   4.30637659
_cell_angle_alpha   90.00000000
_cell_angle_beta   89.34926810
_cell_angle_gamma   90.00000000
_symmetry_Int_Tables_number   1
_chemical_formula_structural   NaCl
_chemical_formula_sum   'Na4 Cl4'
_cell_volume   359.65400133
_cell_formula_units_Z   4
loop_
 _symmetry_equiv_pos_site_id
 _symmetry_equiv_pos_as_xyz
  1  'x, y, z'
loop_
 _atom_site_type_symbol
 _atom_site_label
 _atom_site_symmetry_multiplicity
 _atom_site_fract_x
 _atom_site_fract_y
 _atom_site_fract_z
 _atom_site_occupancy
  Na  Na0  1  0.32944153  0.56458076  0.92876857  1.0
  Na  Na1  1  0.44740190  0.33279197  0.54766560  1.0
  Na  Na2  1  0.59034130  0.13349881  0.37940873  1.0
  Na  Na3  1  0.87984373  0.14045339  0.69996866  1.0
  Cl  Cl4  1  0.29939551  0.83724101  0.31141124  1.0
  Cl  Cl5  1  0.52735819  0.43883025  0.25808907  1.0
  Cl  Cl6  1  0.01194237  0.86527704  0.69357061  1.0
  Cl  Cl7  1  0.00890436  0.09868542  0.09197610  1.0
