# generated using pymatgen
data_NaCl
_symmetry_space_group_name_H-M   'P 1'
_cell_length_a   6.26034430
_cell_length_b   6.26034430
_cell_length_c   6.26034430
_cell_angle_alpha   90.00000000
_cell_angle_beta   90.00000000
_cell_angle_gamma   90.00000000
_symmetry_Int_Tables_number   1
_chemical_formula_structural   NaCl
_chemical_formula_sum   'Na4 Cl4'
_cell_volume   245.35485510
_cell_formula_units_Z   4
loop_
 _symmetry_equiv_pos_site_id
 _symmetry_equiv_pos_as_xyz
  1  'x, y, z'
loop_
 _atom_site_type_symbol
 _atom_site_label
 _atom_site_symmetry_multiplicity
 _atom_site_fract_x
 _atom_site_fract_y
 _atom_site_fract_z
 _atom_site_occupancy
  Na  Na0  1  0.71369509  0.71369509  0.71369509  1.0
  Na  Na1  1  0.91670810  0.41670810  0.08329190  1.0
  Na  Na2  1  0.64715460  0.85284540  0.14715460  1.0
  Na  Na3  1  0.66313418  0.33686582  0.83686582  1.0
  Cl  Cl4  1  0.23277551  0.23277551  0.23277551  1.0
  Cl  Cl5  1  0.38331729  0.88331729  0.61668271  1.0
  Cl  Cl6  1  0.03114248  0.46885752  0.53114248  1.0
  Cl  Cl7  1  0.86668952  0.13331048  0.63331048  1.0
