# generated using pymatgen
data_NaCl
_symmetry_space_group_name_H-M   'P 1'
_cell_length_a   6.95712486
_cell_length_b   15.94827388
_cell_length_c   3.31244219
_cell_angle_alpha   90.00000000
_cell_angle_beta   43.66944727
_cell_angle_gamma   90.00000000
_symmetry_Int_Tables_number   1
_chemical_formula_structural   NaCl
_chemical_formula_sum   'Na4 Cl4'
_cell_volume   253.77769985
_cell_formula_units_Z   4
loop_
 _symmetry_equiv_pos_site_id
 _symmetry_equiv_pos_as_xyz
  1  'x, y, z'
loop_
 _atom_site_type_symbol
 _atom_site_label
 _atom_site_symmetry_multiplicity
 _atom_site_fract_x
 _atom_site_fract_y
 _atom_site_fract_z
 _atom_site_occupancy
  Na  Na0  1  0.00000000  0.53933059  0.00000000  1.0
  Na  Na1  1  0.50000000  0.69362763  0.00000000  1.0
  Na  Na2  1  0.00000000  0.81843338  0.00000000  1.0
  Na  Na3  1  0.50000000  0.44802079  0.00000000  1.0
  Cl  Cl4  1  0.23514911  0.88723277  0.28624367  1.0
  Cl  Cl5  1  0.72531507  0.33774480  0.51307563  1.0
  Cl  Cl6  1  0.04305861  0.07289941  0.99901749  1.0
  Cl  Cl7  1  0.93963538  0.34985428  0.34384873  1.0
