# generated using pymatgen
data_NaCl
_symmetry_space_group_name_H-M   'P 1'
_cell_length_a   5.22299366
_cell_length_b   20.73424242
_cell_length_c   10.19053825
_cell_angle_alpha   90.00000000
_cell_angle_beta   20.12468942
_cell_angle_gamma   90.00000000
_symmetry_Int_Tables_number   1
_chemical_formula_structural   NaCl
_chemical_formula_sum   'Na4 Cl4'
_cell_volume   379.70336307
_cell_formula_units_Z   4
loop_
 _symmetry_equiv_pos_site_id
 _symmetry_equiv_pos_as_xyz
  1  'x, y, z'
loop_
 _atom_site_type_symbol
 _atom_site_label
 _atom_site_symmetry_multiplicity
 _atom_site_fract_x
 _atom_site_fract_y
 _atom_site_fract_z
 _atom_site_occupancy
  Na  Na0  1  0.86497915  0.50046651  0.74205124  1.0
  Na  Na1  1  0.46967669  0.96787041  0.87868589  1.0
  Na  Na2  1  0.93668805  0.43718346  0.52980882  1.0
  Na  Na3  1  0.73665511  0.32014867  0.71598514  1.0
  Cl  Cl4  1  0.28911765  0.83230981  0.44478288  1.0
  Cl  Cl5  1  0.66506927  0.66745389  0.04070181  1.0
  Cl  Cl6  1  0.96120093  0.14346571  0.92805452  1.0
  Cl  Cl7  1  0.62045611  0.45181994  0.04471390  1.0
