# generated using pymatgen
data_NaCl
_symmetry_space_group_name_H-M   'P 1'
_cell_length_a   5.94370429
_cell_length_b   5.94370429
_cell_length_c   5.94370429
_cell_angle_alpha   90.00000000
_cell_angle_beta   90.00000000
_cell_angle_gamma   90.00000000
_symmetry_Int_Tables_number   1
_chemical_formula_structural   NaCl
_chemical_formula_sum   'Na4 Cl4'
_cell_volume   209.97693063
_cell_formula_units_Z   4
loop_
 _symmetry_equiv_pos_site_id
 _symmetry_equiv_pos_as_xyz
  1  'x, y, z'
loop_
 _atom_site_type_symbol
 _atom_site_label
 _atom_site_symmetry_multiplicity
 _atom_site_fract_x
 _atom_site_fract_y
 _atom_site_fract_z
 _atom_site_occupancy
  Na  Na0  1  0.99970408  0.99970408  0.99970408  1.0
  Na  Na1  1  0.61802688  0.11802688  0.38197312  1.0
  Na  Na2  1  0.90412024  0.59587976  0.40412024  1.0
  Na  Na3  1  0.83145270  0.16854730  0.66854730  1.0
  Cl  Cl4  1  0.46610402  0.46610402  0.46610402  1.0
  Cl  Cl5  1  0.28551343  0.78551343  0.71448657  1.0
  Cl  Cl6  1  0.40845766  0.09154234  0.90845766  1.0
  Cl  Cl7  1  0.06073479  0.93926521  0.43926521  1.0
