# generated using pymatgen
data_NaCl
_symmetry_space_group_name_H-M   'P 1'
_cell_length_a   7.71397133
_cell_length_b   15.16254496
_cell_length_c   2.01583471
_cell_angle_alpha   90.00000000
_cell_angle_beta   90.00000000
_cell_angle_gamma   90.00000000
_symmetry_Int_Tables_number   1
_chemical_formula_structural   NaCl
_chemical_formula_sum   'Na4 Cl4'
_cell_volume   235.77895633
_cell_formula_units_Z   4
loop_
 _symmetry_equiv_pos_site_id
 _symmetry_equiv_pos_as_xyz
  1  'x, y, z'
loop_
 _atom_site_type_symbol
 _atom_site_label
 _atom_site_symmetry_multiplicity
 _atom_site_fract_x
 _atom_site_fract_y
 _atom_site_fract_z
 _atom_site_occupancy
  Na  Na0  1  0.86504274  0.51555342  0.84941741  1.0
  Na  Na1  1  0.60009360  0.83742909  0.71382590  1.0
  Na  Na2  1  0.41238491  0.30131610  0.85472333  1.0
  Na  Na3  1  0.93829815  0.16806500  0.48162336  1.0
  Cl  Cl4  1  0.50000000  0.98390380  0.04118810  1.0
  Cl  Cl5  1  0.50000000  0.76504451  0.03031467  1.0
  Cl  Cl6  1  0.50000000  0.52061057  0.25308256  1.0
  Cl  Cl7  1  0.50000000  0.69589849  0.11244154  1.0
