# generated using pymatgen
data_NaCl
_symmetry_space_group_name_H-M   'P 1'
_cell_length_a   7.39987122
_cell_length_b   7.39987122
_cell_length_c   7.39987122
_cell_angle_alpha   90.00000000
_cell_angle_beta   90.00000000
_cell_angle_gamma   90.00000000
_symmetry_Int_Tables_number   1
_chemical_formula_structural   NaCl
_chemical_formula_sum   'Na4 Cl4'
_cell_volume   405.20284439
_cell_formula_units_Z   4
loop_
 _symmetry_equiv_pos_site_id
 _symmetry_equiv_pos_as_xyz
  1  'x, y, z'
loop_
 _atom_site_type_symbol
 _atom_site_label
 _atom_site_symmetry_multiplicity
 _atom_site_fract_x
 _atom_site_fract_y
 _atom_site_fract_z
 _atom_site_occupancy
  Na  Na0  1  0.80826292  0.80826292  0.80826292  1.0
  Na  Na1  1  0.09782453  0.59782453  0.90217547  1.0
  Na  Na2  1  0.52557190  0.97442810  0.02557190  1.0
  Na  Na3  1  0.72656609  0.27343391  0.77343391  1.0
  Cl  Cl4  1  0.67444418  0.67444418  0.67444418  1.0
  Cl  Cl5  1  0.31458700  0.81458700  0.68541300  1.0
  Cl  Cl6  1  0.09520447  0.40479553  0.59520447  1.0
  Cl  Cl7  1  0.06724524  0.93275476  0.43275476  1.0
