# generated using pymatgen
data_NaCl
_symmetry_space_group_name_H-M   'P 1'
_cell_length_a   5.03672315
_cell_length_b   14.63131488
_cell_length_c   4.23101623
_cell_angle_alpha   90.00000000
_cell_angle_beta   153.09236010
_cell_angle_gamma   90.00000000
_symmetry_Int_Tables_number   1
_chemical_formula_structural   NaCl
_chemical_formula_sum   'Na4 Cl4'
_cell_volume   141.10622395
_cell_formula_units_Z   4
loop_
 _symmetry_equiv_pos_site_id
 _symmetry_equiv_pos_as_xyz
  1  'x, y, z'
loop_
 _atom_site_type_symbol
 _atom_site_label
 _atom_site_symmetry_multiplicity
 _atom_site_fract_x
 _atom_site_fract_y
 _atom_site_fract_z
 _atom_site_occupancy
  Na  Na0  1  0.86158466  0.50472909  0.66356996  1.0
  Na  Na1  1  0.47230995  0.57308202  0.88768751  1.0
  Na  Na2  1  0.39162261  0.25251451  0.31839961  1.0
  Na  Na3  1  0.58026422  0.61214187  0.55925348  1.0
  Cl  Cl4  1  0.21622096  0.69605147  0.20505994  1.0
  Cl  Cl5  1  0.76568946  0.82993290  0.42804427  1.0
  Cl  Cl6  1  0.87768019  0.54608872  0.89873116  1.0
  Cl  Cl7  1  0.46699050  0.47698688  0.43246911  1.0
