# generated using pymatgen
data_NaCl
_symmetry_space_group_name_H-M   'P 1'
_cell_length_a   5.62841767
_cell_length_b   5.62841767
_cell_length_c   5.62841767
_cell_angle_alpha   90.00000000
_cell_angle_beta   90.00000000
_cell_angle_gamma   90.00000000
_symmetry_Int_Tables_number   1
_chemical_formula_structural   NaCl
_chemical_formula_sum   'Na4 Cl4'
_cell_volume   178.30312442
_cell_formula_units_Z   4
loop_
 _symmetry_equiv_pos_site_id
 _symmetry_equiv_pos_as_xyz
  1  'x, y, z'
loop_
 _atom_site_type_symbol
 _atom_site_label
 _atom_site_symmetry_multiplicity
 _atom_site_fract_x
 _atom_site_fract_y
 _atom_site_fract_z
 _atom_site_occupancy
  Na  Na0  1  0.66336304  0.66336304  0.66336304  1.0
  Na  Na1  1  0.27879848  0.77879848  0.72120152  1.0
  Na  Na2  1  0.66228012  0.83771988  0.16228012  1.0
  Na  Na3  1  0.80671119  0.19328881  0.69328881  1.0
  Cl  Cl4  1  0.53235323  0.53235323  0.53235323  1.0
  Cl  Cl5  1  0.96136101  0.46136101  0.03863899  1.0
  Cl  Cl6  1  0.12490000  0.37510000  0.62490000  1.0
  Cl  Cl7  1  0.47999188  0.52000812  0.02000812  1.0
