# generated using pymatgen
data_NaCl
_symmetry_space_group_name_H-M   'P 1'
_cell_length_a   7.31045028
_cell_length_b   7.31045028
_cell_length_c   13.86559926
_cell_angle_alpha   90.00000000
_cell_angle_beta   90.00000000
_cell_angle_gamma   120.00000000
_symmetry_Int_Tables_number   1
_chemical_formula_structural   NaCl
_chemical_formula_sum   'Na4 Cl4'
_cell_volume   641.73766684
_cell_formula_units_Z   4
loop_
 _symmetry_equiv_pos_site_id
 _symmetry_equiv_pos_as_xyz
  1  'x, y, z'
loop_
 _atom_site_type_symbol
 _atom_site_label
 _atom_site_symmetry_multiplicity
 _atom_site_fract_x
 _atom_site_fract_y
 _atom_site_fract_z
 _atom_site_occupancy
  Na  Na0  1  0.00000000  0.00000000  0.28323359  1
  Na  Na1  1  0.00000000  0.00000000  1.33067732  1
  Na  Na2  1  0.33333333  0.66666667  0.09580951  1
  Na  Na3  1  0.66666667  0.33333333  1.06362254  1
  Cl  Cl4  1  0.00000000  0.00000000  0.06950674  1
  Cl  Cl5  1  0.00000000  0.00000000  0.51717776  1
  Cl  Cl6  1  0.00000000  0.00000000  0.14404556  1
  Cl  Cl7  1  0.00000000  0.00000000  0.83686002  1
