# generated using pymatgen
data_NaCl
_symmetry_space_group_name_H-M   'P 1'
_cell_length_a   5.29308499
_cell_length_b   5.29308499
_cell_length_c   13.20533831
_cell_angle_alpha   90.00000000
_cell_angle_beta   90.00000000
_cell_angle_gamma   90.00000000
_symmetry_Int_Tables_number   1
_chemical_formula_structural   NaCl
_chemical_formula_sum   'Na4 Cl4'
_cell_volume   369.97064508
_cell_formula_units_Z   4
loop_
 _symmetry_equiv_pos_site_id
 _symmetry_equiv_pos_as_xyz
  1  'x, y, z'
loop_
 _atom_site_type_symbol
 _atom_site_label
 _atom_site_symmetry_multiplicity
 _atom_site_fract_x
 _atom_site_fract_y
 _atom_site_fract_z
 _atom_site_occupancy
  Na  Na0  1  0.80858367  0.80858367  0.00000000  1.0
  Na  Na1  1  0.61165920  0.61165920  0.50000000  1.0
  Na  Na2  1  0.20265228  0.79734772  0.75000000  1.0
  Na  Na3  1  0.76095691  0.23904309  0.25000000  1.0
  Cl  Cl4  1  0.46979592  0.46979592  0.00000000  1.0
  Cl  Cl5  1  0.97878559  0.97878559  0.50000000  1.0
  Cl  Cl6  1  0.70350665  0.29649335  0.75000000  1.0
  Cl  Cl7  1  0.08762539  0.91237461  0.25000000  1.0
