# generated using pymatgen
data_NaCl
_symmetry_space_group_name_H-M   'P 1'
_cell_length_a   2.97207920
_cell_length_b   2.97207920
_cell_length_c   18.75858950
_cell_angle_alpha   90.00000000
_cell_angle_beta   90.00000000
_cell_angle_gamma   90.00000000
_symmetry_Int_Tables_number   1
_chemical_formula_structural   NaCl
_chemical_formula_sum   'Na4 Cl4'
_cell_volume   165.69940020
_cell_formula_units_Z   4
loop_
 _symmetry_equiv_pos_site_id
 _symmetry_equiv_pos_as_xyz
  1  'x, y, z'
loop_
 _atom_site_type_symbol
 _atom_site_label
 _atom_site_symmetry_multiplicity
 _atom_site_fract_x
 _atom_site_fract_y
 _atom_site_fract_z
 _atom_site_occupancy
  Na  Na0  1  0.00000000  0.00000000  0.81166897  1.0
  Na  Na1  1  0.00000000  0.00000000  0.00817939  1.0
  Na  Na2  1  0.50000000  0.50000000  0.77820937  1.0
  Na  Na3  1  0.50000000  0.50000000  0.44753780  1.0
  Cl  Cl4  1  0.50000000  0.00000000  0.26008236  1.0
  Cl  Cl5  1  0.00000000  0.50000000  0.46850290  1.0
  Cl  Cl6  1  0.00000000  0.50000000  0.90831418  1.0
  Cl  Cl7  1  0.50000000  0.00000000  0.73873516  1.0
