# generated using pymatgen
data_NaCl
_symmetry_space_group_name_H-M   'P 1'
_cell_length_a   4.40683328
_cell_length_b   4.40683328
_cell_length_c   17.98383517
_cell_angle_alpha   90.00000000
_cell_angle_beta   90.00000000
_cell_angle_gamma   90.00000000
_symmetry_Int_Tables_number   1
_chemical_formula_structural   NaCl
_chemical_formula_sum   'Na4 Cl4'
_cell_volume   349.24930814
_cell_formula_units_Z   4
loop_
 _symmetry_equiv_pos_site_id
 _symmetry_equiv_pos_as_xyz
  1  'x, y, z'
loop_
 _atom_site_type_symbol
 _atom_site_label
 _atom_site_symmetry_multiplicity
 _atom_site_fract_x
 _atom_site_fract_y
 _atom_site_fract_z
 _atom_site_occupancy
  Na  Na0  1  0.79355281  0.41837597  0.96766039  1.0
  Na  Na1  1  0.59079872  0.30082737  0.03376573  1.0
  Na  Na2  1  0.84344661  0.92000902  0.28944497  1.0
  Na  Na3  1  0.34632799  0.92121120  0.50813101  1.0
  Cl  Cl4  1  0.55809955  0.98136004  0.29468298  1.0
  Cl  Cl5  1  0.85625198  0.16400508  0.99888279  1.0
  Cl  Cl6  1  0.93084230  0.89175047  0.70556514  1.0
  Cl  Cl7  1  0.08754592  0.42396991  0.03633460  1.0
