# generated using pymatgen
data_NaCl
_symmetry_space_group_name_H-M   'P 1'
_cell_length_a   4.58600782
_cell_length_b   3.79946748
_cell_length_c   18.28347025
_cell_angle_alpha   90.00000000
_cell_angle_beta   29.33887435
_cell_angle_gamma   90.00000000
_symmetry_Int_Tables_number   1
_chemical_formula_structural   NaCl
_chemical_formula_sum   'Na4 Cl4'
_cell_volume   156.09507824
_cell_formula_units_Z   4
loop_
 _symmetry_equiv_pos_site_id
 _symmetry_equiv_pos_as_xyz
  1  'x, y, z'
loop_
 _atom_site_type_symbol
 _atom_site_label
 _atom_site_symmetry_multiplicity
 _atom_site_fract_x
 _atom_site_fract_y
 _atom_site_fract_z
 _atom_site_occupancy
  Na  Na0  1  0.99821532  0.39800929  0.75440913  1.0
  Na  Na1  1  0.47711463  0.65740619  0.11847390  1.0
  Na  Na2  1  0.99834367  0.04388062  0.29335310  1.0
  Na  Na3  1  0.65912243  0.89520008  0.13708305  1.0
  Cl  Cl4  1  0.76627255  0.84919858  0.23454826  1.0
  Cl  Cl5  1  0.20600799  0.00087903  0.95757768  1.0
  Cl  Cl6  1  0.31999487  0.09791294  0.38347491  1.0
  Cl  Cl7  1  0.47897595  0.91491835  0.71381622  1.0
