# generated using pymatgen
data_NaCl
_symmetry_space_group_name_H-M   'P 1'
_cell_length_a   5.56901445
_cell_length_b   5.56901445
_cell_length_c   12.96510547
_cell_angle_alpha   90.00000000
_cell_angle_beta   90.00000000
_cell_angle_gamma   90.00000000
_symmetry_Int_Tables_number   1
_chemical_formula_structural   NaCl
_chemical_formula_sum   'Na4 Cl4'
_cell_volume   402.09876905
_cell_formula_units_Z   4
loop_
 _symmetry_equiv_pos_site_id
 _symmetry_equiv_pos_as_xyz
  1  'x, y, z'
loop_
 _atom_site_type_symbol
 _atom_site_label
 _atom_site_symmetry_multiplicity
 _atom_site_fract_x
 _atom_site_fract_y
 _atom_site_fract_z
 _atom_site_occupancy
  Na  Na0  1  0.76253150  0.43627328  0.64265052  1.0
  Na  Na1  1  0.58446590  0.49980838  0.95021200  1.0
  Na  Na2  1  0.95604219  0.42945359  0.27343778  1.0
  Na  Na3  1  0.42333684  0.72569369  0.87427659  1.0
  Cl  Cl4  1  0.72256950  0.99957008  0.23259766  1.0
  Cl  Cl5  1  0.98058374  0.04967922  0.94844159  1.0
  Cl  Cl6  1  0.96432718  0.81875309  0.99394762  1.0
  Cl  Cl7  1  0.28688330  0.27948747  0.93000780  1.0
