# generated using pymatgen
data_NaCl
_symmetry_space_group_name_H-M   'P 1'
_cell_length_a   4.66362236
_cell_length_b   4.66362236
_cell_length_c   15.11772806
_cell_angle_alpha   90.00000000
_cell_angle_beta   90.00000000
_cell_angle_gamma   90.00000000
_symmetry_Int_Tables_number   1
_chemical_formula_structural   NaCl
_chemical_formula_sum   'Na4 Cl4'
_cell_volume   328.80111430
_cell_formula_units_Z   4
loop_
 _symmetry_equiv_pos_site_id
 _symmetry_equiv_pos_as_xyz
  1  'x, y, z'
loop_
 _atom_site_type_symbol
 _atom_site_label
 _atom_site_symmetry_multiplicity
 _atom_site_fract_x
 _atom_site_fract_y
 _atom_site_fract_z
 _atom_site_occupancy
  Na  Na0  1  0.81028867  0.38545230  0.63736803  1.0
  Na  Na1  1  0.59402634  0.43766982  0.96955654  1.0
  Na  Na2  1  0.89035326  0.43997218  0.31812031  1.0
  Na  Na3  1  0.66645623  0.78610405  0.98501254  1.0
  Cl  Cl4  1  0.34430374  0.95375035  0.19624075  1.0
  Cl  Cl5  1  0.96717768  0.06199614  0.93159790  1.0
  Cl  Cl6  1  0.94443161  0.78079151  0.66939302  1.0
  Cl  Cl7  1  0.03884858  0.38155274  0.87139000  1.0
