# generated using pymatgen
data_NaCl
_symmetry_space_group_name_H-M   'P 1'
_cell_length_a   7.68121378
_cell_length_b   2.80664213
_cell_length_c   15.22353927
_cell_angle_alpha   90.00000000
_cell_angle_beta   90.00000000
_cell_angle_gamma   90.00000000
_symmetry_Int_Tables_number   1
_chemical_formula_structural   NaCl
_chemical_formula_sum   'Na4 Cl4'
_cell_volume   328.19542614
_cell_formula_units_Z   4
loop_
 _symmetry_equiv_pos_site_id
 _symmetry_equiv_pos_as_xyz
  1  'x, y, z'
loop_
 _atom_site_type_symbol
 _atom_site_label
 _atom_site_symmetry_multiplicity
 _atom_site_fract_x
 _atom_site_fract_y
 _atom_site_fract_z
 _atom_site_occupancy
  Na  Na0  1  0.96571182  0.52894949  0.67980080  1.0
  Na  Na1  1  0.51066800  0.61445714  0.87994007  1.0
  Na  Na2  1  0.04635821  0.74954876  0.34703461  1.0
  Na  Na3  1  0.95670078  0.16480303  0.77204925  1.0
  Cl  Cl4  1  0.50444098  0.95770955  0.20663166  1.0
  Cl  Cl5  1  0.99788990  0.09317178  0.88533668  1.0
  Cl  Cl6  1  0.31568921  0.95751312  0.91955472  1.0
  Cl  Cl7  1  0.28572161  0.11322071  0.31134231  1.0
