# generated using pymatgen
data_NaCl
_symmetry_space_group_name_H-M   'P 1'
_cell_length_a   8.36470791
_cell_length_b   7.84064554
_cell_length_c   16.89709153
_cell_angle_alpha   90.00000000
_cell_angle_beta   20.03358163
_cell_angle_gamma   90.00000000
_symmetry_Int_Tables_number   1
_chemical_formula_structural   NaCl
_chemical_formula_sum   'Na4 Cl4'
_cell_volume   379.63387693
_cell_formula_units_Z   4
loop_
 _symmetry_equiv_pos_site_id
 _symmetry_equiv_pos_as_xyz
  1  'x, y, z'
loop_
 _atom_site_type_symbol
 _atom_site_label
 _atom_site_symmetry_multiplicity
 _atom_site_fract_x
 _atom_site_fract_y
 _atom_site_fract_z
 _atom_site_occupancy
  Na  Na0  1  0.79076636  0.00000000  0.66396362  1.0
  Na  Na1  1  0.44334124  0.50000000  0.63920717  1.0
  Na  Na2  1  0.90966087  0.00000000  0.45761509  1.0
  Na  Na3  1  0.23362548  0.50000000  0.42062557  1.0
  Cl  Cl4  1  0.51823093  0.00000000  0.16598469  1.0
  Cl  Cl5  1  0.65804603  0.50000000  0.37612079  1.0
  Cl  Cl6  1  0.83180722  0.00000000  0.89877527  1.0
  Cl  Cl7  1  0.98142543  0.50000000  0.80238901  1.0
