# generated using pymatgen
data_NaCl
_symmetry_space_group_name_H-M   'P 1'
_cell_length_a   6.08277731
_cell_length_b   6.08277731
_cell_length_c   6.08277731
_cell_angle_alpha   90.00000000
_cell_angle_beta   90.00000000
_cell_angle_gamma   90.00000000
_symmetry_Int_Tables_number   1
_chemical_formula_structural   NaCl
_chemical_formula_sum   'Na4 Cl4'
_cell_volume   225.06385417
_cell_formula_units_Z   4
loop_
 _symmetry_equiv_pos_site_id
 _symmetry_equiv_pos_as_xyz
  1  'x, y, z'
loop_
 _atom_site_type_symbol
 _atom_site_label
 _atom_site_symmetry_multiplicity
 _atom_site_fract_x
 _atom_site_fract_y
 _atom_site_fract_z
 _atom_site_occupancy
  Na  Na0  1  0.81229042  0.81229042  0.81229042  1.0
  Na  Na1  1  0.53162719  0.03162719  0.46837281  1.0
  Na  Na2  1  0.50405663  0.99594337  0.00405663  1.0
  Na  Na3  1  0.11212351  0.88787649  0.38787649  1.0
  Cl  Cl4  1  0.64012471  0.64012471  0.64012471  1.0
  Cl  Cl5  1  0.39037378  0.89037378  0.60962622  1.0
  Cl  Cl6  1  0.06913431  0.43086569  0.56913431  1.0
  Cl  Cl7  1  0.73092690  0.26907310  0.76907310  1.0
