# generated using pymatgen
data_NaCl
_symmetry_space_group_name_H-M   'P 1'
_cell_length_a   7.08081807
_cell_length_b   3.18492725
_cell_length_c   17.06712894
_cell_angle_alpha   90.00000000
_cell_angle_beta   90.00000000
_cell_angle_gamma   90.00000000
_symmetry_Int_Tables_number   1
_chemical_formula_structural   NaCl
_chemical_formula_sum   'Na4 Cl4'
_cell_volume   384.89602170
_cell_formula_units_Z   4
loop_
 _symmetry_equiv_pos_site_id
 _symmetry_equiv_pos_as_xyz
  1  'x, y, z'
loop_
 _atom_site_type_symbol
 _atom_site_label
 _atom_site_symmetry_multiplicity
 _atom_site_fract_x
 _atom_site_fract_y
 _atom_site_fract_z
 _atom_site_occupancy
  Na  Na0  1  0.98090484  0.41269349  0.47760690  1.0
  Na  Na1  1  0.54413881  0.52910324  0.95939513  1.0
  Na  Na2  1  0.33669781  0.77814631  0.37824517  1.0
  Na  Na3  1  0.08895020  0.32662749  0.06499954  1.0
  Cl  Cl4  1  0.53856834  0.80340089  0.29772123  1.0
  Cl  Cl5  1  0.98093076  0.15144497  0.96735191  1.0
  Cl  Cl6  1  0.43490112  0.83252434  0.85809430  1.0
  Cl  Cl7  1  0.84780571  0.09327252  0.36476538  1.0
