# generated using pymatgen
data_NaCl
_symmetry_space_group_name_H-M   'P 1'
_cell_length_a   2.52204300
_cell_length_b   9.94928299
_cell_length_c   9.67139144
_cell_angle_alpha   90.00000000
_cell_angle_beta   90.00000000
_cell_angle_gamma   90.00000000
_symmetry_Int_Tables_number   1
_chemical_formula_structural   NaCl
_chemical_formula_sum   'Na4 Cl4'
_cell_volume   242.67957849
_cell_formula_units_Z   4
loop_
 _symmetry_equiv_pos_site_id
 _symmetry_equiv_pos_as_xyz
  1  'x, y, z'
loop_
 _atom_site_type_symbol
 _atom_site_label
 _atom_site_symmetry_multiplicity
 _atom_site_fract_x
 _atom_site_fract_y
 _atom_site_fract_z
 _atom_site_occupancy
  Na  Na0  1  0.00000000  0.38944784  0.75335966  1.0
  Na  Na1  1  0.00000000  0.43565337  0.06355663  1.0
  Na  Na2  1  0.50000000  0.66462482  0.50782304  1.0
  Na  Na3  1  0.50000000  0.37486486  0.99007367  1.0
  Cl  Cl4  1  0.00000000  0.95207999  0.31034415  1.0
  Cl  Cl5  1  0.00000000  0.01748368  0.92903620  1.0
  Cl  Cl6  1  0.50000000  0.66385651  0.93045064  1.0
  Cl  Cl7  1  0.50000000  0.32032310  0.38210288  1.0
