# generated using pymatgen
data_NaCl
_symmetry_space_group_name_H-M   'P 1'
_cell_length_a   4.59777704
_cell_length_b   4.59777704
_cell_length_c   16.36775974
_cell_angle_alpha   90.00000000
_cell_angle_beta   90.00000000
_cell_angle_gamma   90.00000000
_symmetry_Int_Tables_number   1
_chemical_formula_structural   NaCl
_chemical_formula_sum   'Na4 Cl4'
_cell_volume   346.00713613
_cell_formula_units_Z   4
loop_
 _symmetry_equiv_pos_site_id
 _symmetry_equiv_pos_as_xyz
  1  'x, y, z'
loop_
 _atom_site_type_symbol
 _atom_site_label
 _atom_site_symmetry_multiplicity
 _atom_site_fract_x
 _atom_site_fract_y
 _atom_site_fract_z
 _atom_site_occupancy
  Na  Na0  1  0.70584388  0.46033363  0.61286152  1.0
  Na  Na1  1  0.67381091  0.46074734  0.92664069  1.0
  Na  Na2  1  0.93247721  0.49847064  0.28833793  1.0
  Na  Na3  1  0.52256044  0.65856147  0.78841685  1.0
  Cl  Cl4  1  0.81150319  0.99898642  0.21089738  1.0
  Cl  Cl5  1  0.96926287  0.04110920  0.72047999  1.0
  Cl  Cl6  1  0.86370979  0.99885611  0.60574445  1.0
  Cl  Cl7  1  0.19725207  0.21547540  0.00976644  1.0
