# generated using pymatgen
data_NaCl
_symmetry_space_group_name_H-M   'P 1'
_cell_length_a   6.38341498
_cell_length_b   6.38341498
_cell_length_c   9.98176492
_cell_angle_alpha   90.00000000
_cell_angle_beta   90.00000000
_cell_angle_gamma   90.00000000
_symmetry_Int_Tables_number   1
_chemical_formula_structural   NaCl
_chemical_formula_sum   'Na4 Cl4'
_cell_volume   406.73682527
_cell_formula_units_Z   4
loop_
 _symmetry_equiv_pos_site_id
 _symmetry_equiv_pos_as_xyz
  1  'x, y, z'
loop_
 _atom_site_type_symbol
 _atom_site_label
 _atom_site_symmetry_multiplicity
 _atom_site_fract_x
 _atom_site_fract_y
 _atom_site_fract_z
 _atom_site_occupancy
  Na  Na0  1  0.85424281  0.31869640  0.74465090  1.0
  Na  Na1  1  0.62252623  0.45837809  0.95193094  1.0
  Na  Na2  1  0.95741393  0.27176252  0.23193814  1.0
  Na  Na3  1  0.74247024  0.86673430  0.00641198  1.0
  Cl  Cl4  1  0.33089879  0.90661515  0.11915202  1.0
  Cl  Cl5  1  0.99882968  0.03479196  0.86757087  1.0
  Cl  Cl6  1  0.77852756  0.73107348  0.74476578  1.0
  Cl  Cl7  1  0.05057403  0.40237980  0.90647669  1.0
