# generated using pymatgen
data_NaCl
_symmetry_space_group_name_H-M   'P 1'
_cell_length_a   4.98971223
_cell_length_b   4.98971223
_cell_length_c   14.53382365
_cell_angle_alpha   90.00000000
_cell_angle_beta   90.00000000
_cell_angle_gamma   90.00000000
_symmetry_Int_Tables_number   1
_chemical_formula_structural   NaCl
_chemical_formula_sum   'Na4 Cl4'
_cell_volume   361.85192313
_cell_formula_units_Z   4
loop_
 _symmetry_equiv_pos_site_id
 _symmetry_equiv_pos_as_xyz
  1  'x, y, z'
loop_
 _atom_site_type_symbol
 _atom_site_label
 _atom_site_symmetry_multiplicity
 _atom_site_fract_x
 _atom_site_fract_y
 _atom_site_fract_z
 _atom_site_occupancy
  Na  Na0  1  0.86611153  0.51379310  0.65872312  1.0
  Na  Na1  1  0.61337962  0.75558094  0.86168184  1.0
  Na  Na2  1  0.92360807  0.88301556  0.27922116  1.0
  Na  Na3  1  0.32299039  0.67836969  0.00950077  1.0
  Cl  Cl4  1  0.48406951  0.96541055  0.26674759  1.0
  Cl  Cl5  1  0.99976089  0.13360213  0.95577513  1.0
  Cl  Cl6  1  0.82802337  0.87943648  0.89648805  1.0
  Cl  Cl7  1  0.67889819  0.55023922  0.97551304  1.0
