# generated using pymatgen
data_NaCl
_symmetry_space_group_name_H-M   'P 1'
_cell_length_a   4.62163294
_cell_length_b   4.62163294
_cell_length_c   16.02431312
_cell_angle_alpha   90.00000000
_cell_angle_beta   90.00000000
_cell_angle_gamma   90.00000000
_symmetry_Int_Tables_number   1
_chemical_formula_structural   NaCl
_chemical_formula_sum   'Na4 Cl4'
_cell_volume   342.27117238
_cell_formula_units_Z   4
loop_
 _symmetry_equiv_pos_site_id
 _symmetry_equiv_pos_as_xyz
  1  'x, y, z'
loop_
 _atom_site_type_symbol
 _atom_site_label
 _atom_site_symmetry_multiplicity
 _atom_site_fract_x
 _atom_site_fract_y
 _atom_site_fract_z
 _atom_site_occupancy
  Na  Na0  1  0.71774120  0.36341588  0.71153569  1.0
  Na  Na1  1  0.56074284  0.44519067  0.99057790  1.0
  Na  Na2  1  0.93940974  0.43476182  0.77977894  1.0
  Na  Na3  1  0.43777029  0.81003140  0.24895602  1.0
  Cl  Cl4  1  0.71137282  0.94294422  0.25759283  1.0
  Cl  Cl5  1  0.98098770  0.00019749  0.93800650  1.0
  Cl  Cl6  1  0.88886928  0.81785444  0.17461883  1.0
  Cl  Cl7  1  0.04534905  0.21214181  0.39769177  1.0
