# generated using pymatgen
data_NaCl
_symmetry_space_group_name_H-M   'P 1'
_cell_length_a   4.57596243
_cell_length_b   4.57596243
_cell_length_c   4.57596243
_cell_angle_alpha   90.00000000
_cell_angle_beta   90.00000000
_cell_angle_gamma   90.00000000
_symmetry_Int_Tables_number   1
_chemical_formula_structural   NaCl
_chemical_formula_sum   'Na4 Cl4'
_cell_volume   95.81805487
_cell_formula_units_Z   4
loop_
 _symmetry_equiv_pos_site_id
 _symmetry_equiv_pos_as_xyz
  1  'x, y, z'
loop_
 _atom_site_type_symbol
 _atom_site_label
 _atom_site_symmetry_multiplicity
 _atom_site_fract_x
 _atom_site_fract_y
 _atom_site_fract_z
 _atom_site_occupancy
  Na  Na0  1  0.87302374  0.87302374  0.87302374  1.0
  Na  Na1  1  0.05646923  0.55646923  0.94353077  1.0
  Na  Na2  1  0.70883293  0.79116707  0.20883293  1.0
  Na  Na3  1  0.63607949  0.36392051  0.86392051  1.0
  Cl  Cl4  1  0.34051177  0.34051177  0.34051177  1.0
  Cl  Cl5  1  0.49853477  0.99853477  0.50146523  1.0
  Cl  Cl6  1  0.25309259  0.24690741  0.75309259  1.0
  Cl  Cl7  1  0.04073628  0.95926372  0.45926372  1.0
