# generated using pymatgen
data_NaCl
_symmetry_space_group_name_H-M   'P 1'
_cell_length_a   4.87690819
_cell_length_b   4.87690819
_cell_length_c   16.07769579
_cell_angle_alpha   90.00000000
_cell_angle_beta   90.00000000
_cell_angle_gamma   90.00000000
_symmetry_Int_Tables_number   1
_chemical_formula_structural   NaCl
_chemical_formula_sum   'Na4 Cl4'
_cell_volume   382.39567071
_cell_formula_units_Z   4
loop_
 _symmetry_equiv_pos_site_id
 _symmetry_equiv_pos_as_xyz
  1  'x, y, z'
loop_
 _atom_site_type_symbol
 _atom_site_label
 _atom_site_symmetry_multiplicity
 _atom_site_fract_x
 _atom_site_fract_y
 _atom_site_fract_z
 _atom_site_occupancy
  Na  Na0  1  0.68043087  0.47013432  0.54295487  1.0
  Na  Na1  1  0.66660970  0.38574027  0.88164090  1.0
  Na  Na2  1  0.96409257  0.50354500  0.77016034  1.0
  Na  Na3  1  0.52010777  0.70634534  0.26754703  1.0
  Cl  Cl4  1  0.86147553  0.95289767  0.27167966  1.0
  Cl  Cl5  1  0.93530315  0.07144487  0.66100250  1.0
  Cl  Cl6  1  0.91098014  0.93038792  0.09166952  1.0
  Cl  Cl7  1  0.21981523  0.22714118  0.47570630  1.0
