# generated using pymatgen
data_NaCl
_symmetry_space_group_name_H-M   'P 1'
_cell_length_a   5.44247500
_cell_length_b   5.44247500
_cell_length_c   5.44247500
_cell_angle_alpha   90.00000000
_cell_angle_beta   90.00000000
_cell_angle_gamma   90.00000000
_symmetry_Int_Tables_number   1
_chemical_formula_structural   NaCl
_chemical_formula_sum   'Na4 Cl4'
_cell_volume   161.20901647
_cell_formula_units_Z   4
loop_
 _symmetry_equiv_pos_site_id
 _symmetry_equiv_pos_as_xyz
  1  'x, y, z'
loop_
 _atom_site_type_symbol
 _atom_site_label
 _atom_site_symmetry_multiplicity
 _atom_site_fract_x
 _atom_site_fract_y
 _atom_site_fract_z
 _atom_site_occupancy
  Na  Na0  1  0.74379641  0.74379641  0.74379641  1.0
  Na  Na1  1  0.16046932  0.66046932  0.83953068  1.0
  Na  Na2  1  0.73986232  0.76013768  0.23986232  1.0
  Na  Na3  1  0.65455940  0.34544060  0.84544060  1.0
  Cl  Cl4  1  0.37239732  0.37239732  0.37239732  1.0
  Cl  Cl5  1  0.94621076  0.44621076  0.05378924  1.0
  Cl  Cl6  1  0.14391395  0.35608605  0.64391395  1.0
  Cl  Cl7  1  0.05713226  0.94286774  0.44286774  1.0
