# generated using pymatgen
data_NaCl
_symmetry_space_group_name_H-M   'P 1'
_cell_length_a   5.58880281
_cell_length_b   6.70357252
_cell_length_c   18.10743372
_cell_angle_alpha   90.00000000
_cell_angle_beta   30.55991987
_cell_angle_gamma   90.00000000
_symmetry_Int_Tables_number   1
_chemical_formula_structural   NaCl
_chemical_formula_sum   'Na4 Cl4'
_cell_volume   344.92209018
_cell_formula_units_Z   4
loop_
 _symmetry_equiv_pos_site_id
 _symmetry_equiv_pos_as_xyz
  1  'x, y, z'
loop_
 _atom_site_type_symbol
 _atom_site_label
 _atom_site_symmetry_multiplicity
 _atom_site_fract_x
 _atom_site_fract_y
 _atom_site_fract_z
 _atom_site_occupancy
  Na  Na0  1  0.85100806  0.42270370  0.72828316  1.0
  Na  Na1  1  0.42432116  0.51154500  0.04494605  1.0
  Na  Na2  1  0.95374213  0.71205271  0.41162777  1.0
  Na  Na3  1  0.82927507  0.14339299  0.98337071  1.0
  Cl  Cl4  1  0.67938915  0.98191235  0.31208057  1.0
  Cl  Cl5  1  0.08889347  0.05378593  0.95547210  1.0
  Cl  Cl6  1  0.48310697  0.59348432  0.93785519  1.0
  Cl  Cl7  1  0.72535826  0.31596413  0.26629689  1.0
