# generated using pymatgen
data_NaCl
_symmetry_space_group_name_H-M   'P 1'
_cell_length_a   6.30267475
_cell_length_b   2.56563388
_cell_length_c   18.54410733
_cell_angle_alpha   90.00000000
_cell_angle_beta   90.00000000
_cell_angle_gamma   90.00000000
_symmetry_Int_Tables_number   1
_chemical_formula_structural   NaCl
_chemical_formula_sum   'Na4 Cl4'
_cell_volume   299.86481488
_cell_formula_units_Z   4
loop_
 _symmetry_equiv_pos_site_id
 _symmetry_equiv_pos_as_xyz
  1  'x, y, z'
loop_
 _atom_site_type_symbol
 _atom_site_label
 _atom_site_symmetry_multiplicity
 _atom_site_fract_x
 _atom_site_fract_y
 _atom_site_fract_z
 _atom_site_occupancy
  Na  Na0  1  0.93665446  0.49774356  0.74753345  1.0
  Na  Na1  1  0.11949769  0.53926678  0.84591812  1.0
  Na  Na2  1  0.57189816  0.80658132  0.02594419  1.0
  Na  Na3  1  0.96465175  0.37303417  0.57962544  1.0
  Cl  Cl4  1  0.60061171  0.95505112  0.31347740  1.0
  Cl  Cl5  1  0.26561048  0.08157644  0.90505133  1.0
  Cl  Cl6  1  0.11131719  0.64997346  0.63283484  1.0
  Cl  Cl7  1  0.73506162  0.34736166  0.24447514  1.0
