# generated using pymatgen
data_NaCl
_symmetry_space_group_name_H-M   'P 1'
_cell_length_a   5.61493813
_cell_length_b   5.61493813
_cell_length_c   5.61493813
_cell_angle_alpha   90.00000000
_cell_angle_beta   90.00000000
_cell_angle_gamma   90.00000000
_symmetry_Int_Tables_number   1
_chemical_formula_structural   NaCl
_chemical_formula_sum   'Na4 Cl4'
_cell_volume   177.02513149
_cell_formula_units_Z   4
loop_
 _symmetry_equiv_pos_site_id
 _symmetry_equiv_pos_as_xyz
  1  'x, y, z'
loop_
 _atom_site_type_symbol
 _atom_site_label
 _atom_site_symmetry_multiplicity
 _atom_site_fract_x
 _atom_site_fract_y
 _atom_site_fract_z
 _atom_site_occupancy
  Na  Na0  1  0.84879878  0.84879878  0.84879878  1.0
  Na  Na1  1  0.19625199  0.69625199  0.80374801  1.0
  Na  Na2  1  0.73295785  0.76704215  0.23295785  1.0
  Na  Na3  1  0.68299148  0.31700852  0.81700852  1.0
  Cl  Cl4  1  0.36217830  0.36217830  0.36217830  1.0
  Cl  Cl5  1  0.48313318  0.98313318  0.51686682  1.0
  Cl  Cl6  1  0.25965818  0.24034182  0.75965818  1.0
  Cl  Cl7  1  0.08080095  0.91919905  0.41919905  1.0
