# generated using pymatgen
data_NaCl
_symmetry_space_group_name_H-M   'P 1'
_cell_length_a   5.33105014
_cell_length_b   5.33105014
_cell_length_c   13.91173761
_cell_angle_alpha   90.00000000
_cell_angle_beta   90.00000000
_cell_angle_gamma   90.00000000
_symmetry_Int_Tables_number   1
_chemical_formula_structural   NaCl
_chemical_formula_sum   'Na4 Cl4'
_cell_volume   395.37291277
_cell_formula_units_Z   4
loop_
 _symmetry_equiv_pos_site_id
 _symmetry_equiv_pos_as_xyz
  1  'x, y, z'
loop_
 _atom_site_type_symbol
 _atom_site_label
 _atom_site_symmetry_multiplicity
 _atom_site_fract_x
 _atom_site_fract_y
 _atom_site_fract_z
 _atom_site_occupancy
  Na  Na0  1  0.31061214  0.54310320  0.67790937  1.0
  Na  Na1  1  0.49257209  0.93751682  0.89656542  1.0
  Na  Na2  1  0.14824129  0.11884951  0.71255063  1.0
  Na  Na3  1  0.62716340  0.39444915  0.36710772  1.0
  Cl  Cl4  1  0.81688039  0.00786159  0.29498581  1.0
  Cl  Cl5  1  0.61587759  0.32013115  0.00482257  1.0
  Cl  Cl6  1  0.20687029  0.71627905  0.42352138  1.0
  Cl  Cl7  1  0.01787619  0.85611948  0.47202376  1.0
