# generated using pymatgen
data_NaCl
_symmetry_space_group_name_H-M   'P 1'
_cell_length_a   5.06339840
_cell_length_b   5.06339840
_cell_length_c   10.09385124
_cell_angle_alpha   90.00000000
_cell_angle_beta   90.00000000
_cell_angle_gamma   90.00000000
_symmetry_Int_Tables_number   1
_chemical_formula_structural   NaCl
_chemical_formula_sum   'Na4 Cl4'
_cell_volume   258.78619198
_cell_formula_units_Z   4
loop_
 _symmetry_equiv_pos_site_id
 _symmetry_equiv_pos_as_xyz
  1  'x, y, z'
loop_
 _atom_site_type_symbol
 _atom_site_label
 _atom_site_symmetry_multiplicity
 _atom_site_fract_x
 _atom_site_fract_y
 _atom_site_fract_z
 _atom_site_occupancy
  Na  Na0  1  0.53111490  0.77113139  0.77803822  1.0
  Na  Na1  1  0.53965322  0.47017405  0.95369922  1.0
  Na  Na2  1  0.85056526  0.91355420  0.46501721  1.0
  Na  Na3  1  0.21126408  0.56854946  0.42453882  1.0
  Cl  Cl4  1  0.68118310  0.51264653  0.07701367  1.0
  Cl  Cl5  1  0.33221497  0.17040979  0.82564895  1.0
  Cl  Cl6  1  0.50962642  0.36189396  0.22951129  1.0
  Cl  Cl7  1  0.25501667  0.27398509  0.68895203  1.0
