# generated using pymatgen
data_NaCl
_symmetry_space_group_name_H-M   'P 1'
_cell_length_a   5.16633779
_cell_length_b   5.16633779
_cell_length_c   14.54769294
_cell_angle_alpha   90.00000000
_cell_angle_beta   90.00000000
_cell_angle_gamma   90.00000000
_symmetry_Int_Tables_number   1
_chemical_formula_structural   NaCl
_chemical_formula_sum   'Na4 Cl4'
_cell_volume   388.29314379
_cell_formula_units_Z   4
loop_
 _symmetry_equiv_pos_site_id
 _symmetry_equiv_pos_as_xyz
  1  'x, y, z'
loop_
 _atom_site_type_symbol
 _atom_site_label
 _atom_site_symmetry_multiplicity
 _atom_site_fract_x
 _atom_site_fract_y
 _atom_site_fract_z
 _atom_site_occupancy
  Na  Na0  1  0.42043078  0.56057579  0.74029570  1.0
  Na  Na1  1  0.26519789  0.86627086  0.95867283  1.0
  Na  Na2  1  0.00118350  0.29753157  0.48504821  1.0
  Na  Na3  1  0.72604569  0.50422791  0.42809109  1.0
  Cl  Cl4  1  0.86495982  0.21271157  0.32690010  1.0
  Cl  Cl5  1  0.65373536  0.49092790  0.87509211  1.0
  Cl  Cl6  1  0.36017406  0.67296328  0.42322450  1.0
  Cl  Cl7  1  0.04671300  0.69761102  0.43752078  1.0
