# generated using pymatgen
data_NaCl
_symmetry_space_group_name_H-M   'P 1'
_cell_length_a   6.35681049
_cell_length_b   2.76918101
_cell_length_c   21.32024207
_cell_angle_alpha   90.00000000
_cell_angle_beta   90.00000000
_cell_angle_gamma   90.00000000
_symmetry_Int_Tables_number   1
_chemical_formula_structural   NaCl
_chemical_formula_sum   'Na4 Cl4'
_cell_volume   375.30360880
_cell_formula_units_Z   4
loop_
 _symmetry_equiv_pos_site_id
 _symmetry_equiv_pos_as_xyz
  1  'x, y, z'
loop_
 _atom_site_type_symbol
 _atom_site_label
 _atom_site_symmetry_multiplicity
 _atom_site_fract_x
 _atom_site_fract_y
 _atom_site_fract_z
 _atom_site_occupancy
  Na  Na0  1  0.31401238  0.18996870  0.55323490  1.0
  Na  Na1  1  0.34526502  0.80216481  0.83421414  1.0
  Na  Na2  1  0.71448486  0.67510490  0.44960783  1.0
  Na  Na3  1  0.05788023  0.44749816  0.10134202  1.0
  Cl  Cl4  1  0.92866727  0.23275870  0.34513864  1.0
  Cl  Cl5  1  0.63712112  0.41894065  0.90607405  1.0
  Cl  Cl6  1  0.07545677  0.70260059  0.68089234  1.0
  Cl  Cl7  1  0.42671525  0.53670998  0.20234459  1.0
