# generated using pymatgen
data_NaCl
_symmetry_space_group_name_H-M   'P 1'
_cell_length_a   4.96939166
_cell_length_b   4.17142102
_cell_length_c   19.37884836
_cell_angle_alpha   90.00000000
_cell_angle_beta   62.58267647
_cell_angle_gamma   90.00000000
_symmetry_Int_Tables_number   1
_chemical_formula_structural   NaCl
_chemical_formula_sum   'Na4 Cl4'
_cell_volume   356.59052003
_cell_formula_units_Z   4
loop_
 _symmetry_equiv_pos_site_id
 _symmetry_equiv_pos_as_xyz
  1  'x, y, z'
loop_
 _atom_site_type_symbol
 _atom_site_label
 _atom_site_symmetry_multiplicity
 _atom_site_fract_x
 _atom_site_fract_y
 _atom_site_fract_z
 _atom_site_occupancy
  Na  Na0  1  0.47829148  0.53595668  0.58024655  1.0
  Na  Na1  1  0.64676300  0.43269801  0.83678295  1.0
  Na  Na2  1  0.73359249  0.28635349  0.64302000  1.0
  Na  Na3  1  0.85629217  0.81458960  0.08557684  1.0
  Cl  Cl4  1  0.82512066  0.13572969  0.50922540  1.0
  Cl  Cl5  1  0.28739468  0.39161838  0.71087850  1.0
  Cl  Cl6  1  0.29101741  0.23770711  0.35859972  1.0
  Cl  Cl7  1  0.10331164  0.36682074  0.15028698  1.0
