# generated using pymatgen
data_NaCl
_symmetry_space_group_name_H-M   'P 1'
_cell_length_a   5.10768267
_cell_length_b   2.51266517
_cell_length_c   17.80655271
_cell_angle_alpha   90.00000000
_cell_angle_beta   90.00000000
_cell_angle_gamma   90.00000000
_symmetry_Int_Tables_number   1
_chemical_formula_structural   NaCl
_chemical_formula_sum   'Na4 Cl4'
_cell_volume   228.52745173
_cell_formula_units_Z   4
loop_
 _symmetry_equiv_pos_site_id
 _symmetry_equiv_pos_as_xyz
  1  'x, y, z'
loop_
 _atom_site_type_symbol
 _atom_site_label
 _atom_site_symmetry_multiplicity
 _atom_site_fract_x
 _atom_site_fract_y
 _atom_site_fract_z
 _atom_site_occupancy
  Na  Na0  1  0.00000000  0.51973603  0.66762804  1.0
  Na  Na1  1  0.50000000  0.80593619  0.97401668  1.0
  Na  Na2  1  0.00000000  0.84736215  0.53766324  1.0
  Na  Na3  1  0.50000000  0.29384010  0.05458700  1.0
  Cl  Cl4  1  0.00000000  0.15116038  0.40218950  1.0
  Cl  Cl5  1  0.50000000  0.41058423  0.77668126  1.0
  Cl  Cl6  1  0.00000000  0.45438546  0.26747914  1.0
  Cl  Cl7  1  0.50000000  0.93323440  0.37310742  1.0
