# generated using pymatgen
data_NaCl
_symmetry_space_group_name_H-M   'P 1'
_cell_length_a   7.84370515
_cell_length_b   2.38733210
_cell_length_c   14.86670327
_cell_angle_alpha   90.00000000
_cell_angle_beta   90.00000000
_cell_angle_gamma   90.00000000
_symmetry_Int_Tables_number   1
_chemical_formula_structural   NaCl
_chemical_formula_sum   'Na4 Cl4'
_cell_volume   278.38688452
_cell_formula_units_Z   4
loop_
 _symmetry_equiv_pos_site_id
 _symmetry_equiv_pos_as_xyz
  1  'x, y, z'
loop_
 _atom_site_type_symbol
 _atom_site_label
 _atom_site_symmetry_multiplicity
 _atom_site_fract_x
 _atom_site_fract_y
 _atom_site_fract_z
 _atom_site_occupancy
  Na  Na0  1  0.00000000  0.50000000  0.89067969  1.0
  Na  Na1  1  0.50000000  0.50000000  0.23511960  1.0
  Na  Na2  1  0.08767535  0.00000000  0.58999311  1.0
  Na  Na3  1  0.57250324  0.00000000  0.56370276  1.0
  Cl  Cl4  1  0.00000000  0.50000000  0.45868203  1.0
  Cl  Cl5  1  0.50000000  0.00000000  0.39609779  1.0
  Cl  Cl6  1  0.50000000  0.00000000  0.26719186  1.0
  Cl  Cl7  1  0.50000000  0.00000000  0.77765498  1.0
