# generated using pymatgen
data_NaCl
_symmetry_space_group_name_H-M   'P 1'
_cell_length_a   6.29506444
_cell_length_b   6.29506444
_cell_length_c   6.29506444
_cell_angle_alpha   90.00000000
_cell_angle_beta   90.00000000
_cell_angle_gamma   90.00000000
_symmetry_Int_Tables_number   1
_chemical_formula_structural   NaCl
_chemical_formula_sum   'Na4 Cl4'
_cell_volume   249.45978315
_cell_formula_units_Z   4
loop_
 _symmetry_equiv_pos_site_id
 _symmetry_equiv_pos_as_xyz
  1  'x, y, z'
loop_
 _atom_site_type_symbol
 _atom_site_label
 _atom_site_symmetry_multiplicity
 _atom_site_fract_x
 _atom_site_fract_y
 _atom_site_fract_z
 _atom_site_occupancy
  Na  Na0  1  0.42501586  0.42501586  0.42501586  1.0
  Na  Na1  1  0.04437239  0.54437239  0.95562761  1.0
  Na  Na2  1  0.79139653  0.70860347  0.29139653  1.0
  Na  Na3  1  0.92682773  0.07317227  0.57317227  1.0
  Cl  Cl4  1  0.89755297  0.89755297  0.89755297  1.0
  Cl  Cl5  1  0.16026209  0.66026209  0.83973791  1.0
  Cl  Cl6  1  0.23729186  0.26270814  0.73729186  1.0
  Cl  Cl7  1  0.73745514  0.26254486  0.76254486  1.0
