# generated using pymatgen
data_NaCl
_symmetry_space_group_name_H-M   'P 1'
_cell_length_a   2.57790559
_cell_length_b   2.57790559
_cell_length_c   15.74114830
_cell_angle_alpha   90.00000000
_cell_angle_beta   90.00000000
_cell_angle_gamma   120.00000000
_symmetry_Int_Tables_number   1
_chemical_formula_structural   NaCl
_chemical_formula_sum   'Na4 Cl4'
_cell_volume   90.59433860
_cell_formula_units_Z   4
loop_
 _symmetry_equiv_pos_site_id
 _symmetry_equiv_pos_as_xyz
  1  'x, y, z'
loop_
 _atom_site_type_symbol
 _atom_site_label
 _atom_site_symmetry_multiplicity
 _atom_site_fract_x
 _atom_site_fract_y
 _atom_site_fract_z
 _atom_site_occupancy
  Na  Na0  1  0.00000000  0.00000000  0.10314667  1.0
  Na  Na1  1  0.00000000  0.00000000  0.64036239  1.0
  Na  Na2  1  0.66666667  0.33333333  0.77735525  1.0
  Na  Na3  1  0.66666667  0.33333333  0.41652769  1.0
  Cl  Cl4  1  0.66666667  0.33333333  0.01823984  1.0
  Cl  Cl5  1  0.12764450  0.70906785  0.22836476  1.0
  Cl  Cl6  1  0.95746112  0.88441097  0.35435193  1.0
  Cl  Cl7  1  0.36665379  0.32571769  0.04322369  1.0
