# generated using pymatgen
data_NaCl
_symmetry_space_group_name_H-M   'P 1'
_cell_length_a   3.47225867
_cell_length_b   9.96742467
_cell_length_c   17.64695877
_cell_angle_alpha   90.00000000
_cell_angle_beta   35.96427389
_cell_angle_gamma   90.00000000
_symmetry_Int_Tables_number   1
_chemical_formula_structural   NaCl
_chemical_formula_sum   'Na4 Cl4'
_cell_volume   358.68285815
_cell_formula_units_Z   4
loop_
 _symmetry_equiv_pos_site_id
 _symmetry_equiv_pos_as_xyz
  1  'x, y, z'
loop_
 _atom_site_type_symbol
 _atom_site_label
 _atom_site_symmetry_multiplicity
 _atom_site_fract_x
 _atom_site_fract_y
 _atom_site_fract_z
 _atom_site_occupancy
  Na  Na0  1  0.97801214  0.69475675  0.41662146  1.0
  Na  Na1  1  0.72101563  0.08953839  0.65723764  1.0
  Na  Na2  1  0.23121875  0.02010128  0.37819828  1.0
  Na  Na3  1  0.67397338  0.92589282  0.87308411  1.0
  Cl  Cl4  1  0.43230279  0.84630202  0.06929750  1.0
  Cl  Cl5  1  0.84334098  0.19105832  0.38051992  1.0
  Cl  Cl6  1  0.71193715  0.08439121  0.54144122  1.0
  Cl  Cl7  1  0.50995901  0.81667398  0.86079779  1.0
