# generated using pymatgen
data_NaCl
_symmetry_space_group_name_H-M   'P 1'
_cell_length_a   5.52817928
_cell_length_b   2.01726813
_cell_length_c   20.65590881
_cell_angle_alpha   90.00000000
_cell_angle_beta   90.00000000
_cell_angle_gamma   90.00000000
_symmetry_Int_Tables_number   1
_chemical_formula_structural   NaCl
_chemical_formula_sum   'Na4 Cl4'
_cell_volume   230.35097448
_cell_formula_units_Z   4
loop_
 _symmetry_equiv_pos_site_id
 _symmetry_equiv_pos_as_xyz
  1  'x, y, z'
loop_
 _atom_site_type_symbol
 _atom_site_label
 _atom_site_symmetry_multiplicity
 _atom_site_fract_x
 _atom_site_fract_y
 _atom_site_fract_z
 _atom_site_occupancy
  Na  Na0  1  0.00000000  0.00000000  0.52700725  1.0
  Na  Na1  1  0.50000000  0.00000000  0.35836353  1.0
  Na  Na2  1  0.50000000  0.50000000  0.92069250  1.0
  Na  Na3  1  0.00000000  0.50000000  0.15627432  1.0
  Cl  Cl4  1  0.25000000  0.24069527  0.36269088  1.0
  Cl  Cl5  1  0.75000000  0.38921846  0.24981664  1.0
  Cl  Cl6  1  0.75000000  0.10947955  0.68965628  1.0
  Cl  Cl7  1  0.25000000  0.49781342  0.10556428  1.0
