# generated using pymatgen
data_NaCl
_symmetry_space_group_name_H-M   'P 1'
_cell_length_a   6.20621643
_cell_length_b   2.02399362
_cell_length_c   16.61482498
_cell_angle_alpha   90.00000000
_cell_angle_beta   90.00000000
_cell_angle_gamma   90.00000000
_symmetry_Int_Tables_number   1
_chemical_formula_structural   NaCl
_chemical_formula_sum   'Na4 Cl4'
_cell_volume   208.70450646
_cell_formula_units_Z   4
loop_
 _symmetry_equiv_pos_site_id
 _symmetry_equiv_pos_as_xyz
  1  'x, y, z'
loop_
 _atom_site_type_symbol
 _atom_site_label
 _atom_site_symmetry_multiplicity
 _atom_site_fract_x
 _atom_site_fract_y
 _atom_site_fract_z
 _atom_site_occupancy
  Na  Na0  1  0.18886350  0.67503406  0.48664381  1.0
  Na  Na1  1  0.24121811  0.91227310  0.81572946  1.0
  Na  Na2  1  0.74052348  0.72147579  0.55207741  1.0
  Na  Na3  1  0.34328999  0.18288457  0.19236116  1.0
  Cl  Cl4  1  0.06417095  0.00128358  0.36315006  1.0
  Cl  Cl5  1  0.69517452  0.49598440  0.69859517  1.0
  Cl  Cl6  1  0.05160184  0.68690650  0.16105002  1.0
  Cl  Cl7  1  0.41316560  0.51670497  0.36970211  1.0
