# generated using pymatgen
data_NaCl
_symmetry_space_group_name_H-M   'P 1'
_cell_length_a   4.76266228
_cell_length_b   4.62106699
_cell_length_c   15.86231157
_cell_angle_alpha   90.00000000
_cell_angle_beta   90.00000000
_cell_angle_gamma   90.00000000
_symmetry_Int_Tables_number   1
_chemical_formula_structural   NaCl
_chemical_formula_sum   'Na4 Cl4'
_cell_volume   349.10697612
_cell_formula_units_Z   4
loop_
 _symmetry_equiv_pos_site_id
 _symmetry_equiv_pos_as_xyz
  1  'x, y, z'
loop_
 _atom_site_type_symbol
 _atom_site_label
 _atom_site_symmetry_multiplicity
 _atom_site_fract_x
 _atom_site_fract_y
 _atom_site_fract_z
 _atom_site_occupancy
  Na  Na0  1  0.00000000  0.57986313  0.63148964  1.0
  Na  Na1  1  0.00000000  0.82980686  0.87849252  1.0
  Na  Na2  1  0.50000000  0.45273652  0.10283294  1.0
  Na  Na3  1  0.50000000  0.75119316  0.02789260  1.0
  Cl  Cl4  1  0.00000000  0.04088428  0.45416281  1.0
  Cl  Cl5  1  0.00000000  0.41567036  0.88546493  1.0
  Cl  Cl6  1  0.50000000  0.14041112  0.64857351  1.0
  Cl  Cl7  1  0.50000000  0.48311689  0.18102707  1.0
