# generated using pymatgen
data_NaCl
_symmetry_space_group_name_H-M   'P 1'
_cell_length_a   6.45451582
_cell_length_b   6.45451582
_cell_length_c   6.45451582
_cell_angle_alpha   90.00000000
_cell_angle_beta   90.00000000
_cell_angle_gamma   90.00000000
_symmetry_Int_Tables_number   1
_chemical_formula_structural   NaCl
_chemical_formula_sum   'Na4 Cl4'
_cell_volume   268.90012789
_cell_formula_units_Z   4
loop_
 _symmetry_equiv_pos_site_id
 _symmetry_equiv_pos_as_xyz
  1  'x, y, z'
loop_
 _atom_site_type_symbol
 _atom_site_label
 _atom_site_symmetry_multiplicity
 _atom_site_fract_x
 _atom_site_fract_y
 _atom_site_fract_z
 _atom_site_occupancy
  Na  Na0  1  0.27420925  0.27420925  0.27420925  1.0
  Na  Na1  1  0.99658990  0.49658990  0.00341010  1.0
  Na  Na2  1  0.59127906  0.90872094  0.09127906  1.0
  Na  Na3  1  0.95987612  0.04012388  0.54012388  1.0
  Cl  Cl4  1  0.87543720  0.87543720  0.87543720  1.0
  Cl  Cl5  1  0.49916034  0.99916034  0.50083966  1.0
  Cl  Cl6  1  0.45393106  0.04606894  0.95393106  1.0
  Cl  Cl7  1  0.60180410  0.39819590  0.89819590  1.0
