# generated using pymatgen
data_NaCl
_symmetry_space_group_name_H-M   'P 1'
_cell_length_a   5.35517786
_cell_length_b   2.91929863
_cell_length_c   16.62157209
_cell_angle_alpha   90.00000000
_cell_angle_beta   90.00000000
_cell_angle_gamma   90.00000000
_symmetry_Int_Tables_number   1
_chemical_formula_structural   NaCl
_chemical_formula_sum   'Na4 Cl4'
_cell_volume   259.85107660
_cell_formula_units_Z   4
loop_
 _symmetry_equiv_pos_site_id
 _symmetry_equiv_pos_as_xyz
  1  'x, y, z'
loop_
 _atom_site_type_symbol
 _atom_site_label
 _atom_site_symmetry_multiplicity
 _atom_site_fract_x
 _atom_site_fract_y
 _atom_site_fract_z
 _atom_site_occupancy
  Na  Na0  1  0.50000000  0.72103040  0.44499666  1.0
  Na  Na1  1  0.50000000  0.92244467  0.77484383  1.0
  Na  Na2  1  0.50000000  0.75336678  0.58384232  1.0
  Na  Na3  1  0.50000000  0.32462108  0.21183190  1.0
  Cl  Cl4  1  0.00000000  0.06975652  0.35232938  1.0
  Cl  Cl5  1  0.00000000  0.48790443  0.67032920  1.0
  Cl  Cl6  1  0.50000000  0.88446625  0.12960080  1.0
  Cl  Cl7  1  0.50000000  0.98177452  0.36597516  1.0
