# generated using pymatgen
data_NaCl
_symmetry_space_group_name_H-M   'P 1'
_cell_length_a   9.76294339
_cell_length_b   2.46120432
_cell_length_c   17.20408533
_cell_angle_alpha   90.00000000
_cell_angle_beta   51.50598934
_cell_angle_gamma   90.00000000
_symmetry_Int_Tables_number   1
_chemical_formula_structural   NaCl
_chemical_formula_sum   'Na4 Cl4'
_cell_volume   323.54933047
_cell_formula_units_Z   4
loop_
 _symmetry_equiv_pos_site_id
 _symmetry_equiv_pos_as_xyz
  1  'x, y, z'
loop_
 _atom_site_type_symbol
 _atom_site_label
 _atom_site_symmetry_multiplicity
 _atom_site_fract_x
 _atom_site_fract_y
 _atom_site_fract_z
 _atom_site_occupancy
  Na  Na0  1  0.45182655  0.00000000  0.67424115  1.0
  Na  Na1  1  0.14500644  0.50000000  0.27851288  1.0
  Na  Na2  1  0.17908312  0.00000000  0.15593691  1.0
  Na  Na3  1  0.13030604  0.50000000  0.36931291  1.0
  Cl  Cl4  1  0.69105208  0.23777663  0.62634484  1.0
  Cl  Cl5  1  0.19110415  0.45077092  0.42960173  1.0
  Cl  Cl6  1  0.98646825  0.06334013  0.77204429  1.0
  Cl  Cl7  1  0.79428645  0.87348722  0.56855319  1.0
