# generated using pymatgen
data_NaCl
_symmetry_space_group_name_H-M   'P 1'
_cell_length_a   7.48463963
_cell_length_b   3.04495568
_cell_length_c   14.27089699
_cell_angle_alpha   90.00000000
_cell_angle_beta   90.00000000
_cell_angle_gamma   90.00000000
_symmetry_Int_Tables_number   1
_chemical_formula_structural   NaCl
_chemical_formula_sum   'Na4 Cl4'
_cell_volume   325.23939302
_cell_formula_units_Z   4
loop_
 _symmetry_equiv_pos_site_id
 _symmetry_equiv_pos_as_xyz
  1  'x, y, z'
loop_
 _atom_site_type_symbol
 _atom_site_label
 _atom_site_symmetry_multiplicity
 _atom_site_fract_x
 _atom_site_fract_y
 _atom_site_fract_z
 _atom_site_occupancy
  Na  Na0  1  0.00000000  0.00000000  0.56573969  1.0
  Na  Na1  1  0.50000000  0.50000000  0.36572456  1.0
  Na  Na2  1  0.00000000  0.50000000  0.23329541  1.0
  Na  Na3  1  0.50000000  0.00000000  0.47070499  1.0
  Cl  Cl4  1  0.99972342  0.07811472  0.33583342  1.0
  Cl  Cl5  1  0.61213773  0.46573735  0.50632751  1.0
  Cl  Cl6  1  0.23356103  0.98072167  0.89031386  1.0
  Cl  Cl7  1  0.45276488  0.66155749  0.65878597  1.0
