# generated using pymatgen
data_NaCl
_symmetry_space_group_name_H-M   'P 1'
_cell_length_a   5.00261074
_cell_length_b   5.00261074
_cell_length_c   15.41072312
_cell_angle_alpha   90.00000000
_cell_angle_beta   90.00000000
_cell_angle_gamma   90.00000000
_symmetry_Int_Tables_number   1
_chemical_formula_structural   NaCl
_chemical_formula_sum   'Na4 Cl4'
_cell_volume   385.67051695
_cell_formula_units_Z   4
loop_
 _symmetry_equiv_pos_site_id
 _symmetry_equiv_pos_as_xyz
  1  'x, y, z'
loop_
 _atom_site_type_symbol
 _atom_site_label
 _atom_site_symmetry_multiplicity
 _atom_site_fract_x
 _atom_site_fract_y
 _atom_site_fract_z
 _atom_site_occupancy
  Na  Na0  1  0.39552739  0.17797058  0.63283058  1.0
  Na  Na1  1  0.43451041  0.82072826  0.88204063  1.0
  Na  Na2  1  0.19613929  0.18771543  0.46661394  1.0
  Na  Na3  1  0.99946808  0.59421130  0.23534378  1.0
  Cl  Cl4  1  0.83694789  0.17791693  0.34208898  1.0
  Cl  Cl5  1  0.68730722  0.38951775  0.92366824  1.0
  Cl  Cl6  1  0.32703073  0.57857889  0.76751498  1.0
  Cl  Cl7  1  0.07023206  0.80917806  0.29224186  1.0
