# generated using pymatgen
data_NaCl
_symmetry_space_group_name_H-M   'P 1'
_cell_length_a   7.11495787
_cell_length_b   7.11495787
_cell_length_c   7.11495787
_cell_angle_alpha   90.00000000
_cell_angle_beta   90.00000000
_cell_angle_gamma   90.00000000
_symmetry_Int_Tables_number   1
_chemical_formula_structural   NaCl
_chemical_formula_sum   'Na4 Cl4'
_cell_volume   360.17784764
_cell_formula_units_Z   4
loop_
 _symmetry_equiv_pos_site_id
 _symmetry_equiv_pos_as_xyz
  1  'x, y, z'
loop_
 _atom_site_type_symbol
 _atom_site_label
 _atom_site_symmetry_multiplicity
 _atom_site_fract_x
 _atom_site_fract_y
 _atom_site_fract_z
 _atom_site_occupancy
  Na  Na0  1  0.05191117  0.05191117  0.05191117  1.0
  Na  Na1  1  0.07233377  0.57233377  0.92766623  1.0
  Na  Na2  1  0.94984239  0.55015761  0.44984239  1.0
  Na  Na3  1  0.84509928  0.15490072  0.65490072  1.0
  Cl  Cl4  1  0.94360918  0.94360918  0.94360918  1.0
  Cl  Cl5  1  0.21913873  0.71913873  0.78086127  1.0
  Cl  Cl6  1  0.39448171  0.10551829  0.89448171  1.0
  Cl  Cl7  1  0.09672487  0.90327513  0.40327513  1.0
