# generated using pymatgen
data_NaCl
_symmetry_space_group_name_H-M   'P 1'
_cell_length_a   5.50582160
_cell_length_b   4.65300997
_cell_length_c   15.19022012
_cell_angle_alpha   90.00000000
_cell_angle_beta   90.00000000
_cell_angle_gamma   90.00000000
_symmetry_Int_Tables_number   1
_chemical_formula_structural   NaCl
_chemical_formula_sum   'Na4 Cl4'
_cell_volume   389.15282327
_cell_formula_units_Z   4
loop_
 _symmetry_equiv_pos_site_id
 _symmetry_equiv_pos_as_xyz
  1  'x, y, z'
loop_
 _atom_site_type_symbol
 _atom_site_label
 _atom_site_symmetry_multiplicity
 _atom_site_fract_x
 _atom_site_fract_y
 _atom_site_fract_z
 _atom_site_occupancy
  Na  Na0  1  0.25000000  0.59185604  0.48804656  1.0
  Na  Na1  1  0.75000000  0.75157711  0.30813951  1.0
  Na  Na2  1  0.75000000  0.25306931  0.06992090  1.0
  Na  Na3  1  0.25000000  0.85923276  0.21686990  1.0
  Cl  Cl4  1  0.00000000  0.00000000  0.35977735  1.0
  Cl  Cl5  1  0.50000000  0.00000000  0.29164682  1.0
  Cl  Cl6  1  0.50000000  0.50000000  0.63203923  1.0
  Cl  Cl7  1  0.00000000  0.50000000  0.35992410  1.0
