# generated using pymatgen
data_NaCl
_symmetry_space_group_name_H-M   'P 1'
_cell_length_a   6.48041427
_cell_length_b   6.48041427
_cell_length_c   6.48041427
_cell_angle_alpha   90.00000000
_cell_angle_beta   90.00000000
_cell_angle_gamma   90.00000000
_symmetry_Int_Tables_number   1
_chemical_formula_structural   NaCl
_chemical_formula_sum   'Na4 Cl4'
_cell_volume   272.14998143
_cell_formula_units_Z   4
loop_
 _symmetry_equiv_pos_site_id
 _symmetry_equiv_pos_as_xyz
  1  'x, y, z'
loop_
 _atom_site_type_symbol
 _atom_site_label
 _atom_site_symmetry_multiplicity
 _atom_site_fract_x
 _atom_site_fract_y
 _atom_site_fract_z
 _atom_site_occupancy
  Na  Na0  1  0.30321280  0.30321280  0.30321280  1.0
  Na  Na1  1  0.94496360  0.44496360  0.05503640  1.0
  Na  Na2  1  0.71554489  0.78445511  0.21554489  1.0
  Na  Na3  1  0.90812288  0.09187712  0.59187712  1.0
  Cl  Cl4  1  0.91508399  0.91508399  0.91508399  1.0
  Cl  Cl5  1  0.20169015  0.70169015  0.79830985  1.0
  Cl  Cl6  1  0.25908339  0.24091661  0.75908339  1.0
  Cl  Cl7  1  0.76888210  0.23111790  0.73111790  1.0
