# generated using pymatgen
data_NaCl
_symmetry_space_group_name_H-M   'P 1'
_cell_length_a   6.10911293
_cell_length_b   4.16628294
_cell_length_c   13.65040492
_cell_angle_alpha   90.00000000
_cell_angle_beta   63.03108754
_cell_angle_gamma   90.00000000
_symmetry_Int_Tables_number   1
_chemical_formula_structural   NaCl
_chemical_formula_sum   'Na4 Cl4'
_cell_volume   309.65159108
_cell_formula_units_Z   4
loop_
 _symmetry_equiv_pos_site_id
 _symmetry_equiv_pos_as_xyz
  1  'x, y, z'
loop_
 _atom_site_type_symbol
 _atom_site_label
 _atom_site_symmetry_multiplicity
 _atom_site_fract_x
 _atom_site_fract_y
 _atom_site_fract_z
 _atom_site_occupancy
  Na  Na0  1  0.36204835  0.58703008  0.63694163  1.0
  Na  Na1  1  0.56986200  0.85908420  0.86414424  1.0
  Na  Na2  1  0.67609175  0.35008260  0.45511783  1.0
  Na  Na3  1  0.10682188  0.81948725  0.02172783  1.0
  Cl  Cl4  1  0.84292914  0.05105964  0.40348358  1.0
  Cl  Cl5  1  0.34346058  0.49885500  0.93688127  1.0
  Cl  Cl6  1  0.19535953  0.30267089  0.63155894  1.0
  Cl  Cl7  1  0.67706194  0.45201441  0.16959317  1.0
