# generated using pymatgen
data_NaCl
_symmetry_space_group_name_H-M   'P 1'
_cell_length_a   6.51690528
_cell_length_b   6.51690528
_cell_length_c   6.51690528
_cell_angle_alpha   90.00000000
_cell_angle_beta   90.00000000
_cell_angle_gamma   90.00000000
_symmetry_Int_Tables_number   1
_chemical_formula_structural   NaCl
_chemical_formula_sum   'Na4 Cl4'
_cell_volume   276.77332195
_cell_formula_units_Z   4
loop_
 _symmetry_equiv_pos_site_id
 _symmetry_equiv_pos_as_xyz
  1  'x, y, z'
loop_
 _atom_site_type_symbol
 _atom_site_label
 _atom_site_symmetry_multiplicity
 _atom_site_fract_x
 _atom_site_fract_y
 _atom_site_fract_z
 _atom_site_occupancy
  Na  Na0  1  0.05703488  0.05703488  0.05703488  1.0
  Na  Na1  1  0.96050456  0.46050456  0.03949544  1.0
  Na  Na2  1  0.73561587  0.76438413  0.23561587  1.0
  Na  Na3  1  0.91413265  0.08586735  0.58586735  1.0
  Cl  Cl4  1  0.93640678  0.93640678  0.93640678  1.0
  Cl  Cl5  1  0.09121631  0.59121631  0.90878369  1.0
  Cl  Cl6  1  0.41683311  0.08316689  0.91683311  1.0
  Cl  Cl7  1  0.63036542  0.36963458  0.86963458  1.0
