# generated using pymatgen
data_NaCl
_symmetry_space_group_name_H-M   'P 1'
_cell_length_a   3.79380880
_cell_length_b   7.98191723
_cell_length_c   13.98349970
_cell_angle_alpha   90.00000000
_cell_angle_beta   34.78849485
_cell_angle_gamma   90.00000000
_symmetry_Int_Tables_number   1
_chemical_formula_structural   NaCl
_chemical_formula_sum   'Na4 Cl4'
_cell_volume   241.59683031
_cell_formula_units_Z   4
loop_
 _symmetry_equiv_pos_site_id
 _symmetry_equiv_pos_as_xyz
  1  'x, y, z'
loop_
 _atom_site_type_symbol
 _atom_site_label
 _atom_site_symmetry_multiplicity
 _atom_site_fract_x
 _atom_site_fract_y
 _atom_site_fract_z
 _atom_site_occupancy
  Na  Na0  1  0.49428701  0.42267452  0.59515072  1.0
  Na  Na1  1  0.61120636  0.97944749  0.29431145  1.0
  Na  Na2  1  0.19180900  0.47389591  0.34691763  1.0
  Na  Na3  1  0.47297993  0.70412118  0.84544081  1.0
  Cl  Cl4  1  0.16549788  0.23018946  0.37513546  1.0
  Cl  Cl5  1  0.51883329  0.89343914  0.42329705  1.0
  Cl  Cl6  1  0.21479627  0.53829699  0.48705195  1.0
  Cl  Cl7  1  0.60081540  0.68627917  0.57247768  1.0
