# generated using pymatgen
data_NaCl
_symmetry_space_group_name_H-M   'P 1'
_cell_length_a   7.40685821
_cell_length_b   3.09590496
_cell_length_c   14.84048101
_cell_angle_alpha   90.00000000
_cell_angle_beta   90.00000000
_cell_angle_gamma   90.00000000
_symmetry_Int_Tables_number   1
_chemical_formula_structural   NaCl
_chemical_formula_sum   'Na4 Cl4'
_cell_volume   340.30601741
_cell_formula_units_Z   4
loop_
 _symmetry_equiv_pos_site_id
 _symmetry_equiv_pos_as_xyz
  1  'x, y, z'
loop_
 _atom_site_type_symbol
 _atom_site_label
 _atom_site_symmetry_multiplicity
 _atom_site_fract_x
 _atom_site_fract_y
 _atom_site_fract_z
 _atom_site_occupancy
  Na  Na0  1  0.29883735  0.53188559  0.53821425  1.0
  Na  Na1  1  0.60336735  0.77080992  0.86331629  1.0
  Na  Na2  1  0.79515064  0.66156936  0.16572804  1.0
  Na  Na3  1  0.11855895  0.20149066  0.09012946  1.0
  Cl  Cl4  1  0.07490808  0.12047677  0.39857998  1.0
  Cl  Cl5  1  0.72961411  0.34341641  0.82807635  1.0
  Cl  Cl6  1  0.07741333  0.58199344  0.17324250  1.0
  Cl  Cl7  1  0.22316537  0.62106318  0.20288615  1.0
