# generated using pymatgen
data_NaCl
_symmetry_space_group_name_H-M   'P 1'
_cell_length_a   2.87072926
_cell_length_b   6.44995623
_cell_length_c   18.22117948
_cell_angle_alpha   90.00000000
_cell_angle_beta   90.00000000
_cell_angle_gamma   90.00000000
_symmetry_Int_Tables_number   1
_chemical_formula_structural   NaCl
_chemical_formula_sum   'Na4 Cl4'
_cell_volume   337.38478187
_cell_formula_units_Z   4
loop_
 _symmetry_equiv_pos_site_id
 _symmetry_equiv_pos_as_xyz
  1  'x, y, z'
loop_
 _atom_site_type_symbol
 _atom_site_label
 _atom_site_symmetry_multiplicity
 _atom_site_fract_x
 _atom_site_fract_y
 _atom_site_fract_z
 _atom_site_occupancy
  Na  Na0  1  0.00000000  0.00000000  0.71239628  1.0
  Na  Na1  1  0.00000000  0.50000000  0.85481692  1.0
  Na  Na2  1  0.00000000  0.50000000  0.59421926  1.0
  Na  Na3  1  0.00000000  0.00000000  0.07485640  1.0
  Cl  Cl4  1  0.92104765  0.25000000  0.66452334  1.0
  Cl  Cl5  1  0.66667876  0.75000000  0.40786631  1.0
  Cl  Cl6  1  0.72714244  0.75000000  0.07343363  1.0
  Cl  Cl7  1  0.71317772  0.25000000  0.00158664  1.0
