# generated using pymatgen
data_NaCl
_symmetry_space_group_name_H-M   'P 1'
_cell_length_a   6.85280236
_cell_length_b   3.46855860
_cell_length_c   15.66948951
_cell_angle_alpha   90.00000000
_cell_angle_beta   90.00000000
_cell_angle_gamma   90.00000000
_symmetry_Int_Tables_number   1
_chemical_formula_structural   NaCl
_chemical_formula_sum   'Na4 Cl4'
_cell_volume   372.45352658
_cell_formula_units_Z   4
loop_
 _symmetry_equiv_pos_site_id
 _symmetry_equiv_pos_as_xyz
  1  'x, y, z'
loop_
 _atom_site_type_symbol
 _atom_site_label
 _atom_site_symmetry_multiplicity
 _atom_site_fract_x
 _atom_site_fract_y
 _atom_site_fract_z
 _atom_site_occupancy
  Na  Na0  1  0.00000000  0.03430632  0.54664492  1.0
  Na  Na1  1  0.00000000  0.86799734  0.88532258  1.0
  Na  Na2  1  0.50000000  0.30282450  0.47001919  1.0
  Na  Na3  1  0.50000000  0.54820494  0.06147043  1.0
  Cl  Cl4  1  0.00000000  0.25708039  0.32072988  1.0
  Cl  Cl5  1  0.00000000  0.42690878  0.86691447  1.0
  Cl  Cl6  1  0.50000000  0.29430325  0.69945121  1.0
  Cl  Cl7  1  0.50000000  0.49465483  0.18035253  1.0
