# generated using pymatgen
data_NaCl
_symmetry_space_group_name_H-M   'P 1'
_cell_length_a   4.41812464
_cell_length_b   2.71204787
_cell_length_c   16.59098017
_cell_angle_alpha   90.00000000
_cell_angle_beta   90.00000000
_cell_angle_gamma   90.00000000
_symmetry_Int_Tables_number   1
_chemical_formula_structural   NaCl
_chemical_formula_sum   'Na4 Cl4'
_cell_volume   198.79587052
_cell_formula_units_Z   4
loop_
 _symmetry_equiv_pos_site_id
 _symmetry_equiv_pos_as_xyz
  1  'x, y, z'
loop_
 _atom_site_type_symbol
 _atom_site_label
 _atom_site_symmetry_multiplicity
 _atom_site_fract_x
 _atom_site_fract_y
 _atom_site_fract_z
 _atom_site_occupancy
  Na  Na0  1  0.22221588  0.60148629  0.54686020  1.0
  Na  Na1  1  0.29055515  0.80468368  0.76756438  1.0
  Na  Na2  1  0.76184807  0.26809781  0.59427182  1.0
  Na  Na3  1  0.40931461  0.69970847  0.16537684  1.0
  Cl  Cl4  1  0.00695677  0.05255479  0.40688174  1.0
  Cl  Cl5  1  0.68257417  0.37298750  0.81920228  1.0
  Cl  Cl6  1  0.04556382  0.07719370  0.25663094  1.0
  Cl  Cl7  1  0.41032224  0.00287110  0.41616752  1.0
