# generated using pymatgen
data_NaCl
_symmetry_space_group_name_H-M   'P 1'
_cell_length_a   5.21558055
_cell_length_b   5.21558055
_cell_length_c   5.21558055
_cell_angle_alpha   90.00000000
_cell_angle_beta   90.00000000
_cell_angle_gamma   90.00000000
_symmetry_Int_Tables_number   1
_chemical_formula_structural   NaCl
_chemical_formula_sum   'Na4 Cl4'
_cell_volume   141.87568495
_cell_formula_units_Z   4
loop_
 _symmetry_equiv_pos_site_id
 _symmetry_equiv_pos_as_xyz
  1  'x, y, z'
loop_
 _atom_site_type_symbol
 _atom_site_label
 _atom_site_symmetry_multiplicity
 _atom_site_fract_x
 _atom_site_fract_y
 _atom_site_fract_z
 _atom_site_occupancy
  Na  Na0  1  0.34035863  0.34035863  0.34035863  1.0
  Na  Na1  1  0.86955774  0.36955774  0.13044226  1.0
  Na  Na2  1  0.89123810  0.60876190  0.39123810  1.0
  Na  Na3  1  0.89585034  0.10414966  0.60414966  1.0
  Cl  Cl4  1  0.99996728  0.99996728  0.99996728  1.0
  Cl  Cl5  1  0.21189309  0.71189309  0.78810691  1.0
  Cl  Cl6  1  0.24650410  0.25349590  0.74650410  1.0
  Cl  Cl7  1  0.76176643  0.23823357  0.73823357  1.0
