# generated using pymatgen
data_NaCl
_symmetry_space_group_name_H-M   'P 1'
_cell_length_a   6.54963570
_cell_length_b   3.01769854
_cell_length_c   13.17166618
_cell_angle_alpha   90.00000000
_cell_angle_beta   90.00000000
_cell_angle_gamma   90.00000000
_symmetry_Int_Tables_number   1
_chemical_formula_structural   NaCl
_chemical_formula_sum   'Na4 Cl4'
_cell_volume   260.33569136
_cell_formula_units_Z   4
loop_
 _symmetry_equiv_pos_site_id
 _symmetry_equiv_pos_as_xyz
  1  'x, y, z'
loop_
 _atom_site_type_symbol
 _atom_site_label
 _atom_site_symmetry_multiplicity
 _atom_site_fract_x
 _atom_site_fract_y
 _atom_site_fract_z
 _atom_site_occupancy
  Na  Na0  1  0.30343472  0.53920919  0.66459231  1.0
  Na  Na1  1  0.97377830  0.95209349  0.92951823  1.0
  Na  Na2  1  0.87415815  0.37801535  0.06964889  1.0
  Na  Na3  1  0.09921986  0.88732165  0.38763481  1.0
  Cl  Cl4  1  0.90946712  0.01752075  0.35339072  1.0
  Cl  Cl5  1  0.10586340  0.34721145  0.97781937  1.0
  Cl  Cl6  1  0.28694795  0.24641840  0.34164132  1.0
  Cl  Cl7  1  0.66707179  0.40982745  0.27334571  1.0
