# generated using pymatgen
data_NaCl
_symmetry_space_group_name_H-M   'P 1'
_cell_length_a   7.15413386
_cell_length_b   7.15413386
_cell_length_c   7.15413386
_cell_angle_alpha   90.00000000
_cell_angle_beta   90.00000000
_cell_angle_gamma   90.00000000
_symmetry_Int_Tables_number   1
_chemical_formula_structural   NaCl
_chemical_formula_sum   'Na4 Cl4'
_cell_volume   366.16024140
_cell_formula_units_Z   4
loop_
 _symmetry_equiv_pos_site_id
 _symmetry_equiv_pos_as_xyz
  1  'x, y, z'
loop_
 _atom_site_type_symbol
 _atom_site_label
 _atom_site_symmetry_multiplicity
 _atom_site_fract_x
 _atom_site_fract_y
 _atom_site_fract_z
 _atom_site_occupancy
  Na  Na0  1  0.23945866  0.23945866  0.23945866  1.0
  Na  Na1  1  0.98629146  0.48629146  0.01370854  1.0
  Na  Na2  1  0.83428845  0.66571155  0.33428845  1.0
  Na  Na3  1  0.88418773  0.11581227  0.61581227  1.0
  Cl  Cl4  1  0.91699326  0.91699326  0.91699326  1.0
  Cl  Cl5  1  0.21610849  0.71610849  0.78389151  1.0
  Cl  Cl6  1  0.08673407  0.41326593  0.58673407  1.0
  Cl  Cl7  1  0.61774670  0.38225330  0.88225330  1.0
