# generated using pymatgen
data_NaCl
_symmetry_space_group_name_H-M   'P 1'
_cell_length_a   5.41383674
_cell_length_b   3.54451535
_cell_length_c   18.38197678
_cell_angle_alpha   90.00000000
_cell_angle_beta   90.00000000
_cell_angle_gamma   90.00000000
_symmetry_Int_Tables_number   1
_chemical_formula_structural   NaCl
_chemical_formula_sum   'Na4 Cl4'
_cell_volume   352.73960939
_cell_formula_units_Z   4
loop_
 _symmetry_equiv_pos_site_id
 _symmetry_equiv_pos_as_xyz
  1  'x, y, z'
loop_
 _atom_site_type_symbol
 _atom_site_label
 _atom_site_symmetry_multiplicity
 _atom_site_fract_x
 _atom_site_fract_y
 _atom_site_fract_z
 _atom_site_occupancy
  Na  Na0  1  0.25000000  0.25000000  0.62243521  1.0
  Na  Na1  1  0.75000000  0.75000000  0.51476433  1.0
  Na  Na2  1  0.25000000  0.75000000  0.49660380  1.0
  Na  Na3  1  0.75000000  0.25000000  0.26053876  1.0
  Cl  Cl4  1  0.25000000  0.27347650  0.45234889  1.0
  Cl  Cl5  1  0.25000000  0.84303978  0.37325048  1.0
  Cl  Cl6  1  0.75000000  0.31040428  0.89506804  1.0
  Cl  Cl7  1  0.75000000  0.91254579  0.28229187  1.0
