# generated using pymatgen
data_NaCl
_symmetry_space_group_name_H-M   'P 1'
_cell_length_a   5.18872150
_cell_length_b   5.18872150
_cell_length_c   5.18872150
_cell_angle_alpha   90.00000000
_cell_angle_beta   90.00000000
_cell_angle_gamma   90.00000000
_symmetry_Int_Tables_number   1
_chemical_formula_structural   NaCl
_chemical_formula_sum   'Na4 Cl4'
_cell_volume   139.69507104
_cell_formula_units_Z   4
loop_
 _symmetry_equiv_pos_site_id
 _symmetry_equiv_pos_as_xyz
  1  'x, y, z'
loop_
 _atom_site_type_symbol
 _atom_site_label
 _atom_site_symmetry_multiplicity
 _atom_site_fract_x
 _atom_site_fract_y
 _atom_site_fract_z
 _atom_site_occupancy
  Na  Na0  1  0.37044754  0.37044754  0.37044754  1.0
  Na  Na1  1  0.97292076  0.47292076  0.02707924  1.0
  Na  Na2  1  0.65795530  0.84204470  0.15795530  1.0
  Na  Na3  1  0.00604786  0.99395214  0.49395214  1.0
  Cl  Cl4  1  0.58508114  0.58508114  0.58508114  1.0
  Cl  Cl5  1  0.10487557  0.60487557  0.89512443  1.0
  Cl  Cl6  1  0.50196227  0.99803773  0.00196227  1.0
  Cl  Cl7  1  0.65263694  0.34736306  0.84736306  1.0
