# generated using pymatgen
data_NaCl
_symmetry_space_group_name_H-M   'P 1'
_cell_length_a   3.99671608
_cell_length_b   4.97377766
_cell_length_c   17.34600774
_cell_angle_alpha   90.00000000
_cell_angle_beta   85.00478193
_cell_angle_gamma   90.00000000
_symmetry_Int_Tables_number   1
_chemical_formula_structural   NaCl
_chemical_formula_sum   'Na4 Cl4'
_cell_volume   343.50779497
_cell_formula_units_Z   4
loop_
 _symmetry_equiv_pos_site_id
 _symmetry_equiv_pos_as_xyz
  1  'x, y, z'
loop_
 _atom_site_type_symbol
 _atom_site_label
 _atom_site_symmetry_multiplicity
 _atom_site_fract_x
 _atom_site_fract_y
 _atom_site_fract_z
 _atom_site_occupancy
  Na  Na0  1  0.36283137  0.61090163  0.52162364  1.0
  Na  Na1  1  0.70356264  0.79216842  0.77664273  1.0
  Na  Na2  1  0.69547404  0.26696475  0.48536192  1.0
  Na  Na3  1  0.89659952  0.82642306  0.07506700  1.0
  Cl  Cl4  1  0.90445886  0.04404280  0.43029596  1.0
  Cl  Cl5  1  0.22430347  0.36511884  0.83979948  1.0
  Cl  Cl6  1  0.14386915  0.16030761  0.17358284  1.0
  Cl  Cl7  1  0.72761735  0.49927857  0.15362690  1.0
