# generated using pymatgen
data_NaCl
_symmetry_space_group_name_H-M   'P 1'
_cell_length_a   5.56002744
_cell_length_b   5.56002744
_cell_length_c   5.56002744
_cell_angle_alpha   90.00000000
_cell_angle_beta   90.00000000
_cell_angle_gamma   90.00000000
_symmetry_Int_Tables_number   1
_chemical_formula_structural   NaCl
_chemical_formula_sum   'Na4 Cl4'
_cell_volume   171.88216082
_cell_formula_units_Z   4
loop_
 _symmetry_equiv_pos_site_id
 _symmetry_equiv_pos_as_xyz
  1  'x, y, z'
loop_
 _atom_site_type_symbol
 _atom_site_label
 _atom_site_symmetry_multiplicity
 _atom_site_fract_x
 _atom_site_fract_y
 _atom_site_fract_z
 _atom_site_occupancy
  Na  Na0  1  0.69018314  0.69018314  0.69018314  1.0
  Na  Na1  1  0.74262184  0.24262184  0.25737816  1.0
  Na  Na2  1  0.05913200  0.44086800  0.55913200  1.0
  Na  Na3  1  0.78589919  0.21410081  0.71410081  1.0
  Cl  Cl4  1  0.57322831  0.57322831  0.57322831  1.0
  Cl  Cl5  1  0.60637762  0.10637762  0.39362238  1.0
  Cl  Cl6  1  0.75720935  0.74279065  0.25720935  1.0
  Cl  Cl7  1  0.59276767  0.40723233  0.90723233  1.0
