# generated using pymatgen
data_NaCl
_symmetry_space_group_name_H-M   'P 1'
_cell_length_a   6.11740263
_cell_length_b   3.45774979
_cell_length_c   18.43183694
_cell_angle_alpha   90.00000000
_cell_angle_beta   90.00000000
_cell_angle_gamma   90.00000000
_symmetry_Int_Tables_number   1
_chemical_formula_structural   NaCl
_chemical_formula_sum   'Na4 Cl4'
_cell_volume   389.87846614
_cell_formula_units_Z   4
loop_
 _symmetry_equiv_pos_site_id
 _symmetry_equiv_pos_as_xyz
  1  'x, y, z'
loop_
 _atom_site_type_symbol
 _atom_site_label
 _atom_site_symmetry_multiplicity
 _atom_site_fract_x
 _atom_site_fract_y
 _atom_site_fract_z
 _atom_site_occupancy
  Na  Na0  1  0.59525967  0.02609701  0.18302150  1.0
  Na  Na1  1  0.18508108  0.35869498  0.99622332  1.0
  Na  Na2  1  0.43388168  0.88404923  0.86935759  1.0
  Na  Na3  1  0.07281617  0.16269499  0.26096825  1.0
  Cl  Cl4  1  0.62001150  0.57211360  0.83711631  1.0
  Cl  Cl5  1  0.06040555  0.71498888  0.59109659  1.0
  Cl  Cl6  1  0.49801076  0.07997714  0.39896271  1.0
  Cl  Cl7  1  0.47121661  0.19853840  0.24464033  1.0
