# generated using pymatgen
data_NaCl
_symmetry_space_group_name_H-M   'P 1'
_cell_length_a   3.11340822
_cell_length_b   8.47424155
_cell_length_c   15.20759794
_cell_angle_alpha   90.00000000
_cell_angle_beta   90.00000000
_cell_angle_gamma   90.00000000
_symmetry_Int_Tables_number   1
_chemical_formula_structural   NaCl
_chemical_formula_sum   'Na4 Cl4'
_cell_volume   401.23381649
_cell_formula_units_Z   4
loop_
 _symmetry_equiv_pos_site_id
 _symmetry_equiv_pos_as_xyz
  1  'x, y, z'
loop_
 _atom_site_type_symbol
 _atom_site_label
 _atom_site_symmetry_multiplicity
 _atom_site_fract_x
 _atom_site_fract_y
 _atom_site_fract_z
 _atom_site_occupancy
  Na  Na0  1  0.00000000  0.29211354  0.06336984  1.0
  Na  Na1  1  0.50000000  0.92590539  0.25382722  1.0
  Na  Na2  1  0.00000000  0.96281014  0.97975072  1.0
  Na  Na3  1  0.50000000  0.38512569  0.17365055  1.0
  Cl  Cl4  1  0.00000000  0.56398704  0.52179764  1.0
  Cl  Cl5  1  0.50000000  0.92459375  0.37480847  1.0
  Cl  Cl6  1  0.00000000  0.35748066  0.54242128  1.0
  Cl  Cl7  1  0.50000000  0.43621150  0.94834151  1.0
