# generated using pymatgen
data_NaCl
_symmetry_space_group_name_H-M   'P 1'
_cell_length_a   2.00475396
_cell_length_b   10.49170990
_cell_length_c   14.07398265
_cell_angle_alpha   90.00000000
_cell_angle_beta   99.19064625
_cell_angle_gamma   90.00000000
_symmetry_Int_Tables_number   1
_chemical_formula_structural   NaCl
_chemical_formula_sum   'Na4 Cl4'
_cell_volume   292.22202742
_cell_formula_units_Z   4
loop_
 _symmetry_equiv_pos_site_id
 _symmetry_equiv_pos_as_xyz
  1  'x, y, z'
loop_
 _atom_site_type_symbol
 _atom_site_label
 _atom_site_symmetry_multiplicity
 _atom_site_fract_x
 _atom_site_fract_y
 _atom_site_fract_z
 _atom_site_occupancy
  Na  Na0  1  0.55811570  0.20907985  0.29339197  1.0
  Na  Na1  1  0.98466615  0.77575393  0.51717789  1.0
  Na  Na2  1  0.36167649  0.27072689  0.92633039  1.0
  Na  Na3  1  0.30063702  0.83886271  0.18323726  1.0
  Cl  Cl4  1  0.71652515  0.05749339  0.81547884  1.0
  Cl  Cl5  1  0.40478314  0.73840713  0.57676730  1.0
  Cl  Cl6  1  0.04669364  0.68062742  0.71385830  1.0
  Cl  Cl7  1  0.33659754  0.45350644  0.05263242  1.0
