# generated using pymatgen
data_NaCl
_symmetry_space_group_name_H-M   'P 1'
_cell_length_a   4.59793376
_cell_length_b   4.59793376
_cell_length_c   19.48035209
_cell_angle_alpha   90.00000000
_cell_angle_beta   90.00000000
_cell_angle_gamma   90.00000000
_symmetry_Int_Tables_number   1
_chemical_formula_structural   NaCl
_chemical_formula_sum   'Na4 Cl4'
_cell_volume   411.83402343
_cell_formula_units_Z   4
loop_
 _symmetry_equiv_pos_site_id
 _symmetry_equiv_pos_as_xyz
  1  'x, y, z'
loop_
 _atom_site_type_symbol
 _atom_site_label
 _atom_site_symmetry_multiplicity
 _atom_site_fract_x
 _atom_site_fract_y
 _atom_site_fract_z
 _atom_site_occupancy
  Na  Na0  1  0.56632935  0.56632935  0.00000000  1.0
  Na  Na1  1  0.21193117  0.21193117  0.50000000  1.0
  Na  Na2  1  0.79578196  0.20421804  0.75000000  1.0
  Na  Na3  1  0.23356461  0.76643539  0.25000000  1.0
  Cl  Cl4  1  0.85270201  0.85270201  0.00000000  1.0
  Cl  Cl5  1  0.58490418  0.58490418  0.50000000  1.0
  Cl  Cl6  1  0.51840640  0.48159360  0.75000000  1.0
  Cl  Cl7  1  0.66869436  0.33130564  0.25000000  1.0
