# generated using pymatgen
data_NaCl
_symmetry_space_group_name_H-M   'P 1'
_cell_length_a   3.08298212
_cell_length_b   3.08298212
_cell_length_c   23.27890142
_cell_angle_alpha   90.00000000
_cell_angle_beta   90.00000000
_cell_angle_gamma   90.00000000
_symmetry_Int_Tables_number   1
_chemical_formula_structural   NaCl
_chemical_formula_sum   'Na4 Cl4'
_cell_volume   221.26080759
_cell_formula_units_Z   4
loop_
 _symmetry_equiv_pos_site_id
 _symmetry_equiv_pos_as_xyz
  1  'x, y, z'
loop_
 _atom_site_type_symbol
 _atom_site_label
 _atom_site_symmetry_multiplicity
 _atom_site_fract_x
 _atom_site_fract_y
 _atom_site_fract_z
 _atom_site_occupancy
  Na  Na0  1  0.50743582  0.00148281  0.18973449  1.0
  Na  Na1  1  0.06563488  0.84385922  0.20011795  1.0
  Na  Na2  1  0.15210509  0.85029199  0.83735371  1.0
  Na  Na3  1  0.72725607  0.37180966  0.44223393  1.0
  Cl  Cl4  1  0.69115702  0.69426648  0.66137991  1.0
  Cl  Cl5  1  0.67819879  0.81043628  0.73834309  1.0
  Cl  Cl6  1  0.74933856  0.86354129  0.99710237  1.0
  Cl  Cl7  1  0.12588023  0.21529796  0.45202047  1.0
