# generated using pymatgen
data_NaCl
_symmetry_space_group_name_H-M   'P 1'
_cell_length_a   3.52626752
_cell_length_b   3.60954710
_cell_length_c   17.37609043
_cell_angle_alpha   90.00000000
_cell_angle_beta   111.49955969
_cell_angle_gamma   90.00000000
_symmetry_Int_Tables_number   1
_chemical_formula_structural   NaCl
_chemical_formula_sum   'Na4 Cl4'
_cell_volume   205.77814832
_cell_formula_units_Z   4
loop_
 _symmetry_equiv_pos_site_id
 _symmetry_equiv_pos_as_xyz
  1  'x, y, z'
loop_
 _atom_site_type_symbol
 _atom_site_label
 _atom_site_symmetry_multiplicity
 _atom_site_fract_x
 _atom_site_fract_y
 _atom_site_fract_z
 _atom_site_occupancy
  Na  Na0  1  0.40119343  0.41221516  0.09006954  1.0
  Na  Na1  1  0.05128350  0.60552290  0.34056664  1.0
  Na  Na2  1  0.71681301  0.74976536  0.97771397  1.0
  Na  Na3  1  0.26662551  0.22322802  0.37013611  1.0
  Cl  Cl4  1  0.85310288  0.49249891  0.65747296  1.0
  Cl  Cl5  1  0.49953581  0.74298540  0.02206879  1.0
  Cl  Cl6  1  0.96469831  0.34838479  0.50051274  1.0
  Cl  Cl7  1  0.80864073  0.21212504  0.26774279  1.0
