# generated using pymatgen
data_NaCl
_symmetry_space_group_name_H-M   'P 1'
_cell_length_a   3.04020229
_cell_length_b   3.04020229
_cell_length_c   16.55858689
_cell_angle_alpha   90.00000000
_cell_angle_beta   90.00000000
_cell_angle_gamma   90.00000000
_symmetry_Int_Tables_number   1
_chemical_formula_structural   NaCl
_chemical_formula_sum   'Na4 Cl4'
_cell_volume   153.04820307
_cell_formula_units_Z   4
loop_
 _symmetry_equiv_pos_site_id
 _symmetry_equiv_pos_as_xyz
  1  'x, y, z'
loop_
 _atom_site_type_symbol
 _atom_site_label
 _atom_site_symmetry_multiplicity
 _atom_site_fract_x
 _atom_site_fract_y
 _atom_site_fract_z
 _atom_site_occupancy
  Na  Na0  1  0.58249708  0.18041842  0.28094622  1.0
  Na  Na1  1  0.21244329  0.61007348  0.66326384  1.0
  Na  Na2  1  0.38002046  0.47261786  0.10033621  1.0
  Na  Na3  1  0.30892451  0.93220863  0.83416263  1.0
  Cl  Cl4  1  0.50673828  0.16080277  0.76113110  1.0
  Cl  Cl5  1  0.06151408  0.64048023  0.29336505  1.0
  Cl  Cl6  1  0.65965498  0.80142797  0.58334830  1.0
  Cl  Cl7  1  0.32906904  0.28137422  0.03897130  1.0
