# generated using pymatgen
data_NaCl
_symmetry_space_group_name_H-M   'P 1'
_cell_length_a   4.42864405
_cell_length_b   4.42864405
_cell_length_c   16.14325834
_cell_angle_alpha   90.00000000
_cell_angle_beta   90.00000000
_cell_angle_gamma   90.00000000
_symmetry_Int_Tables_number   1
_chemical_formula_structural   NaCl
_chemical_formula_sum   'Na4 Cl4'
_cell_volume   316.61591974
_cell_formula_units_Z   4
loop_
 _symmetry_equiv_pos_site_id
 _symmetry_equiv_pos_as_xyz
  1  'x, y, z'
loop_
 _atom_site_type_symbol
 _atom_site_label
 _atom_site_symmetry_multiplicity
 _atom_site_fract_x
 _atom_site_fract_y
 _atom_site_fract_z
 _atom_site_occupancy
  Na  Na0  1  0.38492119  0.10543886  0.04100394  1.0
  Na  Na1  1  0.05834471  0.77635018  0.10202311  1.0
  Na  Na2  1  0.57889556  0.60279162  0.23477720  1.0
  Na  Na3  1  0.50842047  0.44926399  0.02341847  1.0
  Cl  Cl4  1  0.66950020  0.21957810  0.61774054  1.0
  Cl  Cl5  1  0.67764049  0.07302045  0.79155653  1.0
  Cl  Cl6  1  0.68253202  0.69584049  0.46908241  1.0
  Cl  Cl7  1  0.27625122  0.10922600  0.89459237  1.0
