# generated using pymatgen
data_NaCl
_symmetry_space_group_name_H-M   'P 1'
_cell_length_a   4.96507407
_cell_length_b   4.73334988
_cell_length_c   13.49710131
_cell_angle_alpha   90.00000000
_cell_angle_beta   90.00000000
_cell_angle_gamma   90.00000000
_symmetry_Int_Tables_number   1
_chemical_formula_structural   NaCl
_chemical_formula_sum   'Na4 Cl4'
_cell_volume   317.20121880
_cell_formula_units_Z   4
loop_
 _symmetry_equiv_pos_site_id
 _symmetry_equiv_pos_as_xyz
  1  'x, y, z'
loop_
 _atom_site_type_symbol
 _atom_site_label
 _atom_site_symmetry_multiplicity
 _atom_site_fract_x
 _atom_site_fract_y
 _atom_site_fract_z
 _atom_site_occupancy
  Na  Na0  1  0.62434550  0.34433758  0.32541889  1.0
  Na  Na1  1  0.21562725  0.74157816  0.78718187  1.0
  Na  Na2  1  0.95211883  0.04052352  0.96541639  1.0
  Na  Na3  1  0.81972256  0.86505482  0.69909513  1.0
  Cl  Cl4  1  0.21249038  0.21550011  0.59841531  1.0
  Cl  Cl5  1  0.24560071  0.45644237  0.10610529  1.0
  Cl  Cl6  1  0.50032798  0.42064613  0.39652499  1.0
  Cl  Cl7  1  0.15891641  0.11463019  0.79064792  1.0
