# generated using pymatgen
data_NaCl
_symmetry_space_group_name_H-M   'P 1'
_cell_length_a   4.11433128
_cell_length_b   4.11433128
_cell_length_c   20.31282907
_cell_angle_alpha   90.00000000
_cell_angle_beta   90.00000000
_cell_angle_gamma   90.00000000
_symmetry_Int_Tables_number   1
_chemical_formula_structural   NaCl
_chemical_formula_sum   'Na4 Cl4'
_cell_volume   343.84992113
_cell_formula_units_Z   4
loop_
 _symmetry_equiv_pos_site_id
 _symmetry_equiv_pos_as_xyz
  1  'x, y, z'
loop_
 _atom_site_type_symbol
 _atom_site_label
 _atom_site_symmetry_multiplicity
 _atom_site_fract_x
 _atom_site_fract_y
 _atom_site_fract_z
 _atom_site_occupancy
  Na  Na0  1  0.43925653  0.17645588  0.17929582  1.0
  Na  Na1  1  0.00166515  0.85376946  0.08474062  1.0
  Na  Na2  1  0.29513965  0.80479441  0.15254059  1.0
  Na  Na3  1  0.72675544  0.28336462  0.51196199  1.0
  Cl  Cl4  1  0.69446117  0.39497205  0.79070436  1.0
  Cl  Cl5  1  0.57956400  0.75707270  0.47210779  1.0
  Cl  Cl6  1  0.91009944  0.92521190  0.88145003  1.0
  Cl  Cl7  1  0.68192840  0.91971986  0.38038986  1.0
