# generated using pymatgen
data_NaCl
_symmetry_space_group_name_H-M   'P 1'
_cell_length_a   4.00887118
_cell_length_b   4.00887118
_cell_length_c   21.01251710
_cell_angle_alpha   90.00000000
_cell_angle_beta   90.00000000
_cell_angle_gamma   90.00000000
_symmetry_Int_Tables_number   1
_chemical_formula_structural   NaCl
_chemical_formula_sum   'Na4 Cl4'
_cell_volume   337.69317381
_cell_formula_units_Z   4
loop_
 _symmetry_equiv_pos_site_id
 _symmetry_equiv_pos_as_xyz
  1  'x, y, z'
loop_
 _atom_site_type_symbol
 _atom_site_label
 _atom_site_symmetry_multiplicity
 _atom_site_fract_x
 _atom_site_fract_y
 _atom_site_fract_z
 _atom_site_occupancy
  Na  Na0  1  0.50000000  0.01783155  0.00000000  1.0
  Na  Na1  1  0.50000000  0.80196131  0.50000000  1.0
  Na  Na2  1  0.29708520  0.50000000  0.25000000  1.0
  Na  Na3  1  0.66755771  0.50000000  0.75000000  1.0
  Cl  Cl4  1  0.00000000  0.47066123  0.00000000  1.0
  Cl  Cl5  1  0.00000000  0.84700602  0.50000000  1.0
  Cl  Cl6  1  0.87287893  0.00000000  0.25000000  1.0
  Cl  Cl7  1  0.78337993  0.00000000  0.75000000  1.0
