# generated using pymatgen
data_NaCl
_symmetry_space_group_name_H-M   'P 1'
_cell_length_a   4.65766489
_cell_length_b   5.88008228
_cell_length_c   19.40141919
_cell_angle_alpha   90.00000000
_cell_angle_beta   129.43141426
_cell_angle_gamma   90.00000000
_symmetry_Int_Tables_number   1
_chemical_formula_structural   NaCl
_chemical_formula_sum   'Na4 Cl4'
_cell_volume   410.41121775
_cell_formula_units_Z   4
loop_
 _symmetry_equiv_pos_site_id
 _symmetry_equiv_pos_as_xyz
  1  'x, y, z'
loop_
 _atom_site_type_symbol
 _atom_site_label
 _atom_site_symmetry_multiplicity
 _atom_site_fract_x
 _atom_site_fract_y
 _atom_site_fract_z
 _atom_site_occupancy
  Na  Na0  1  0.30322959  0.23650099  0.11374166  1.0
  Na  Na1  1  0.99879922  0.96164992  0.13284523  1.0
  Na  Na2  1  0.29306200  0.36704293  0.98102453  1.0
  Na  Na3  1  0.09442479  0.85099798  0.22748890  1.0
  Cl  Cl4  1  0.82518798  0.45760179  0.69912446  1.0
  Cl  Cl5  1  0.41196035  0.74630951  0.47909728  1.0
  Cl  Cl6  1  0.49960603  0.94305774  0.36360908  1.0
  Cl  Cl7  1  0.63810647  0.87811116  0.08390594  1.0
