# generated using pymatgen
data_NaCl
_symmetry_space_group_name_H-M   'P 1'
_cell_length_a   2.45768088
_cell_length_b   8.40680801
_cell_length_c   15.79160848
_cell_angle_alpha   90.00000000
_cell_angle_beta   90.00000000
_cell_angle_gamma   90.00000000
_symmetry_Int_Tables_number   1
_chemical_formula_structural   NaCl
_chemical_formula_sum   'Na4 Cl4'
_cell_volume   326.27439136
_cell_formula_units_Z   4
loop_
 _symmetry_equiv_pos_site_id
 _symmetry_equiv_pos_as_xyz
  1  'x, y, z'
loop_
 _atom_site_type_symbol
 _atom_site_label
 _atom_site_symmetry_multiplicity
 _atom_site_fract_x
 _atom_site_fract_y
 _atom_site_fract_z
 _atom_site_occupancy
  Na  Na0  1  0.00000000  0.27645865  0.22859038  1.0
  Na  Na1  1  0.00000000  0.84481756  0.14922124  1.0
  Na  Na2  1  0.50000000  0.77222090  0.99984985  1.0
  Na  Na3  1  0.50000000  0.36039780  0.25264495  1.0
  Cl  Cl4  1  0.89255102  0.66562921  0.68031747  1.0
  Cl  Cl5  1  0.56553032  0.93077980  0.43440269  1.0
  Cl  Cl6  1  0.96282147  0.85443739  0.07322470  1.0
  Cl  Cl7  1  0.87992131  0.53901567  0.62701208  1.0
