# generated using pymatgen
data_NaCl
_symmetry_space_group_name_H-M   'P 1'
_cell_length_a   3.31488686
_cell_length_b   3.31488686
_cell_length_c   21.94542246
_cell_angle_alpha   90.00000000
_cell_angle_beta   90.00000000
_cell_angle_gamma   90.00000000
_symmetry_Int_Tables_number   1
_chemical_formula_structural   NaCl
_chemical_formula_sum   'Na4 Cl4'
_cell_volume   241.14672375
_cell_formula_units_Z   4
loop_
 _symmetry_equiv_pos_site_id
 _symmetry_equiv_pos_as_xyz
  1  'x, y, z'
loop_
 _atom_site_type_symbol
 _atom_site_label
 _atom_site_symmetry_multiplicity
 _atom_site_fract_x
 _atom_site_fract_y
 _atom_site_fract_z
 _atom_site_occupancy
  Na  Na0  1  0.80036789  0.17392047  0.39649736  1.0
  Na  Na1  1  0.12227941  0.68076838  0.77978476  1.0
  Na  Na2  1  0.55122150  0.75150915  0.85448968  1.0
  Na  Na3  1  0.12797930  0.32004163  0.96105260  1.0
  Cl  Cl4  1  0.77687716  0.27264402  0.89677243  1.0
  Cl  Cl5  1  0.30730422  0.87904921  0.92708051  1.0
  Cl  Cl6  1  0.44573685  0.59910973  0.48822437  1.0
  Cl  Cl7  1  0.07775574  0.26504602  0.22755867  1.0
