# generated using pymatgen
data_NaCl
_symmetry_space_group_name_H-M   'P 1'
_cell_length_a   2.54103621
_cell_length_b   8.31739157
_cell_length_c   16.71093246
_cell_angle_alpha   90.00000000
_cell_angle_beta   90.00000000
_cell_angle_gamma   90.00000000
_symmetry_Int_Tables_number   1
_chemical_formula_structural   NaCl
_chemical_formula_sum   'Na4 Cl4'
_cell_volume   353.18210092
_cell_formula_units_Z   4
loop_
 _symmetry_equiv_pos_site_id
 _symmetry_equiv_pos_as_xyz
  1  'x, y, z'
loop_
 _atom_site_type_symbol
 _atom_site_label
 _atom_site_symmetry_multiplicity
 _atom_site_fract_x
 _atom_site_fract_y
 _atom_site_fract_z
 _atom_site_occupancy
  Na  Na0  1  0.00000000  0.32005350  0.27780957  1.0
  Na  Na1  1  0.00000000  0.15819670  0.58135187  1.0
  Na  Na2  1  0.00000000  0.12175575  0.47820608  1.0
  Na  Na3  1  0.00000000  0.91916680  0.13439623  1.0
  Cl  Cl4  1  0.00000000  0.00000000  0.81128629  1.0
  Cl  Cl5  1  0.00000000  0.50000000  0.43881408  1.0
  Cl  Cl6  1  0.00000000  0.00000000  0.54589956  1.0
  Cl  Cl7  1  0.00000000  0.50000000  0.10861616  1.0
