# generated using pymatgen
data_NaCl
_symmetry_space_group_name_H-M   'P 1'
_cell_length_a   3.31854749
_cell_length_b   18.73312811
_cell_length_c   9.11919170
_cell_angle_alpha   90.00000000
_cell_angle_beta   41.83823700
_cell_angle_gamma   90.00000000
_symmetry_Int_Tables_number   1
_chemical_formula_structural   NaCl
_chemical_formula_sum   'Na4 Cl4'
_cell_volume   378.14637171
_cell_formula_units_Z   4
loop_
 _symmetry_equiv_pos_site_id
 _symmetry_equiv_pos_as_xyz
  1  'x, y, z'
loop_
 _atom_site_type_symbol
 _atom_site_label
 _atom_site_symmetry_multiplicity
 _atom_site_fract_x
 _atom_site_fract_y
 _atom_site_fract_z
 _atom_site_occupancy
  Na  Na0  1  0.59170915  0.64377937  0.18719111  1.0
  Na  Na1  1  0.69500753  0.33991612  0.99445182  1.0
  Na  Na2  1  0.81510616  0.77558563  0.48782589  1.0
  Na  Na3  1  0.33315953  0.05812727  0.02389727  1.0
  Cl  Cl4  1  0.25239807  0.63255550  0.43246356  1.0
  Cl  Cl5  1  0.82314504  0.08210487  0.19618488  1.0
  Cl  Cl6  1  0.41137194  0.56668986  0.53736654  1.0
  Cl  Cl7  1  0.85455107  0.02925288  0.34023463  1.0
