# generated using pymatgen
data_NaCl
_symmetry_space_group_name_H-M   'P 1'
_cell_length_a   6.53755466
_cell_length_b   2.01158030
_cell_length_c   21.53742309
_cell_angle_alpha   90.00000000
_cell_angle_beta   90.00000000
_cell_angle_gamma   90.00000000
_symmetry_Int_Tables_number   1
_chemical_formula_structural   NaCl
_chemical_formula_sum   'Na4 Cl4'
_cell_volume   283.23469171
_cell_formula_units_Z   4
loop_
 _symmetry_equiv_pos_site_id
 _symmetry_equiv_pos_as_xyz
  1  'x, y, z'
loop_
 _atom_site_type_symbol
 _atom_site_label
 _atom_site_symmetry_multiplicity
 _atom_site_fract_x
 _atom_site_fract_y
 _atom_site_fract_z
 _atom_site_occupancy
  Na  Na0  1  0.69616685  0.04844916  0.17964138  1.0
  Na  Na1  1  0.75928677  0.92239595  0.95935164  1.0
  Na  Na2  1  0.37330272  0.38747984  0.26609808  1.0
  Na  Na3  1  0.61732441  0.71641297  0.77953312  1.0
  Cl  Cl4  1  0.00000000  0.49758350  0.84451460  1.0
  Cl  Cl5  1  0.50000000  0.71461016  0.61174780  1.0
  Cl  Cl6  1  0.00000000  0.47074978  0.33553449  1.0
  Cl  Cl7  1  0.50000000  0.27748358  0.19907174  1.0
