# generated using pymatgen
data_NaCl
_symmetry_space_group_name_H-M   'P 1'
_cell_length_a   3.91650265
_cell_length_b   2.39844853
_cell_length_c   14.27504971
_cell_angle_alpha   90.00000000
_cell_angle_beta   90.00000000
_cell_angle_gamma   90.00000000
_symmetry_Int_Tables_number   1
_chemical_formula_structural   NaCl
_chemical_formula_sum   'Na4 Cl4'
_cell_volume   134.09310804
_cell_formula_units_Z   4
loop_
 _symmetry_equiv_pos_site_id
 _symmetry_equiv_pos_as_xyz
  1  'x, y, z'
loop_
 _atom_site_type_symbol
 _atom_site_label
 _atom_site_symmetry_multiplicity
 _atom_site_fract_x
 _atom_site_fract_y
 _atom_site_fract_z
 _atom_site_occupancy
  Na  Na0  1  0.33409742  0.33425762  0.05080982  1.0
  Na  Na1  1  0.52385186  0.97884251  0.19348807  1.0
  Na  Na2  1  0.28318965  0.22946250  0.53570169  1.0
  Na  Na3  1  0.24292818  0.68490614  0.37475084  1.0
  Cl  Cl4  1  0.79785487  0.42043013  0.64491158  1.0
  Cl  Cl5  1  0.98839577  0.82901026  0.49871616  1.0
  Cl  Cl6  1  0.75264959  0.90356680  0.99732096  1.0
  Cl  Cl7  1  0.71420476  0.72321104  0.31591148  1.0
