# generated using pymatgen
data_NaCl
_symmetry_space_group_name_H-M   'P 1'
_cell_length_a   4.26952685
_cell_length_b   4.26952685
_cell_length_c   19.74176541
_cell_angle_alpha   90.00000000
_cell_angle_beta   90.00000000
_cell_angle_gamma   90.00000000
_symmetry_Int_Tables_number   1
_chemical_formula_structural   NaCl
_chemical_formula_sum   'Na4 Cl4'
_cell_volume   359.86986839
_cell_formula_units_Z   4
loop_
 _symmetry_equiv_pos_site_id
 _symmetry_equiv_pos_as_xyz
  1  'x, y, z'
loop_
 _atom_site_type_symbol
 _atom_site_label
 _atom_site_symmetry_multiplicity
 _atom_site_fract_x
 _atom_site_fract_y
 _atom_site_fract_z
 _atom_site_occupancy
  Na  Na0  1  0.53135012  0.59821749  0.25243241  1.0
  Na  Na1  1  0.15958200  0.37129054  0.82212427  1.0
  Na  Na2  1  0.50411622  0.85852328  0.09063673  1.0
  Na  Na3  1  0.66255539  0.58662749  0.51982263  1.0
  Cl  Cl4  1  0.68380577  0.59536746  0.91431829  1.0
  Cl  Cl5  1  0.03852442  0.71046820  0.73141262  1.0
  Cl  Cl6  1  0.43712980  0.89885473  0.65608334  1.0
  Cl  Cl7  1  0.91118237  0.99822678  0.62111878  1.0
