# generated using pymatgen
data_NaCl
_symmetry_space_group_name_H-M   'P 1'
_cell_length_a   3.46567884
_cell_length_b   13.57405704
_cell_length_c   8.40296012
_cell_angle_alpha   90.00000000
_cell_angle_beta   90.00000000
_cell_angle_gamma   90.00000000
_symmetry_Int_Tables_number   1
_chemical_formula_structural   NaCl
_chemical_formula_sum   'Na4 Cl4'
_cell_volume   395.30316083
_cell_formula_units_Z   4
loop_
 _symmetry_equiv_pos_site_id
 _symmetry_equiv_pos_as_xyz
  1  'x, y, z'
loop_
 _atom_site_type_symbol
 _atom_site_label
 _atom_site_symmetry_multiplicity
 _atom_site_fract_x
 _atom_site_fract_y
 _atom_site_fract_z
 _atom_site_occupancy
  Na  Na0  1  0.79832939  0.36671991  0.46348842  1.0
  Na  Na1  1  0.38053883  0.68988680  0.84969943  1.0
  Na  Na2  1  0.92839833  0.26787072  0.30790211  1.0
  Na  Na3  1  0.55019401  0.09017358  0.99797585  1.0
  Cl  Cl4  1  0.40693906  0.62114132  0.03171114  1.0
  Cl  Cl5  1  0.15827901  0.14168457  0.03404446  1.0
  Cl  Cl6  1  0.34627554  0.46400074  0.55587558  1.0
  Cl  Cl7  1  0.94182158  0.10095605  0.30855058  1.0
