# generated using pymatgen
data_NaCl
_symmetry_space_group_name_H-M   'P 1'
_cell_length_a   4.79320342
_cell_length_b   4.79320342
_cell_length_c   4.79320342
_cell_angle_alpha   90.00000000
_cell_angle_beta   90.00000000
_cell_angle_gamma   90.00000000
_symmetry_Int_Tables_number   1
_chemical_formula_structural   NaCl
_chemical_formula_sum   'Na4 Cl4'
_cell_volume   110.12288526
_cell_formula_units_Z   4
loop_
 _symmetry_equiv_pos_site_id
 _symmetry_equiv_pos_as_xyz
  1  'x, y, z'
loop_
 _atom_site_type_symbol
 _atom_site_label
 _atom_site_symmetry_multiplicity
 _atom_site_fract_x
 _atom_site_fract_y
 _atom_site_fract_z
 _atom_site_occupancy
  Na  Na0  1  0.40752015  0.40752015  0.40752015  1.0
  Na  Na1  1  0.63629783  0.13629783  0.36370217  1.0
  Na  Na2  1  0.44656438  0.05343562  0.94656438  1.0
  Na  Na3  1  0.87481765  0.12518235  0.62518235  1.0
  Cl  Cl4  1  0.81813873  0.81813873  0.81813873  1.0
  Cl  Cl5  1  0.11509772  0.61509772  0.88490228  1.0
  Cl  Cl6  1  0.16829387  0.33170613  0.66829387  1.0
  Cl  Cl7  1  0.55221812  0.44778188  0.94778188  1.0
