# generated using pymatgen
data_NaCl
_symmetry_space_group_name_H-M   'P 1'
_cell_length_a   6.94143183
_cell_length_b   6.94143183
_cell_length_c   5.65369569
_cell_angle_alpha   90.00000000
_cell_angle_beta   90.00000000
_cell_angle_gamma   90.00000000
_symmetry_Int_Tables_number   1
_chemical_formula_structural   NaCl
_chemical_formula_sum   'Na4 Cl4'
_cell_volume   272.41470975
_cell_formula_units_Z   4
loop_
 _symmetry_equiv_pos_site_id
 _symmetry_equiv_pos_as_xyz
  1  'x, y, z'
loop_
 _atom_site_type_symbol
 _atom_site_label
 _atom_site_symmetry_multiplicity
 _atom_site_fract_x
 _atom_site_fract_y
 _atom_site_fract_z
 _atom_site_occupancy
  Na  Na0  1  0.60969166  0.53291680  0.72771134  1.0
  Na  Na1  1  0.47588861  0.68213378  0.33909278  1.0
  Na  Na2  1  0.51486932  0.42530588  0.93447742  1.0
  Na  Na3  1  0.08026703  0.30388459  0.94822896  1.0
  Cl  Cl4  1  0.60676732  0.48523710  0.45962451  1.0
  Cl  Cl5  1  0.71794707  0.24218251  0.97735247  1.0
  Cl  Cl6  1  0.72269490  0.75802887  0.17452367  1.0
  Cl  Cl7  1  0.77926877  0.33687220  0.38443517  1.0
