# generated using pymatgen
data_NaCl
_symmetry_space_group_name_H-M   'P 1'
_cell_length_a   5.04196314
_cell_length_b   5.04196314
_cell_length_c   10.65718815
_cell_angle_alpha   90.00000000
_cell_angle_beta   90.00000000
_cell_angle_gamma   90.00000000
_symmetry_Int_Tables_number   1
_chemical_formula_structural   NaCl
_chemical_formula_sum   'Na4 Cl4'
_cell_volume   270.92056083
_cell_formula_units_Z   4
loop_
 _symmetry_equiv_pos_site_id
 _symmetry_equiv_pos_as_xyz
  1  'x, y, z'
loop_
 _atom_site_type_symbol
 _atom_site_label
 _atom_site_symmetry_multiplicity
 _atom_site_fract_x
 _atom_site_fract_y
 _atom_site_fract_z
 _atom_site_occupancy
  Na  Na0  1  0.72208634  0.55290987  0.63100139  1.0
  Na  Na1  1  0.00159624  0.07695408  0.86195781  1.0
  Na  Na2  1  0.76065242  0.27856134  0.47897745  1.0
  Na  Na3  1  0.19243775  0.76536903  0.86313224  1.0
  Cl  Cl4  1  0.30679060  0.21567620  0.36007235  1.0
  Cl  Cl5  1  0.69716249  0.04585396  0.03548636  1.0
  Cl  Cl6  1  0.91108360  0.70300594  0.60339484  1.0
  Cl  Cl7  1  0.46610413  0.76889532  0.99725227  1.0
