# generated using pymatgen
data_NaCl
_symmetry_space_group_name_H-M   'P 1'
_cell_length_a   6.81896181
_cell_length_b   6.81896181
_cell_length_c   8.44281853
_cell_angle_alpha   90.00000000
_cell_angle_beta   90.00000000
_cell_angle_gamma   90.00000000
_symmetry_Int_Tables_number   1
_chemical_formula_structural   NaCl
_chemical_formula_sum   'Na4 Cl4'
_cell_volume   392.57620369
_cell_formula_units_Z   4
loop_
 _symmetry_equiv_pos_site_id
 _symmetry_equiv_pos_as_xyz
  1  'x, y, z'
loop_
 _atom_site_type_symbol
 _atom_site_label
 _atom_site_symmetry_multiplicity
 _atom_site_fract_x
 _atom_site_fract_y
 _atom_site_fract_z
 _atom_site_occupancy
  Na  Na0  1  0.00000000  0.00000000  0.79932999  1.0
  Na  Na1  1  0.50000000  0.50000000  0.88380776  1.0
  Na  Na2  1  0.50000000  0.00000000  0.79105699  1.0
  Na  Na3  1  0.00000000  0.50000000  0.00440115  1.0
  Cl  Cl4  1  0.90406295  0.40406295  0.32306016  1.0
  Cl  Cl5  1  0.81742809  0.31742809  0.21207513  1.0
  Cl  Cl6  1  0.90025637  0.59974363  0.47130092  1.0
  Cl  Cl7  1  0.20256224  0.29743776  0.59482080  1.0
