# generated using pymatgen
data_NaCl
_symmetry_space_group_name_H-M   'P 1'
_cell_length_a   8.49936143
_cell_length_b   4.14636647
_cell_length_c   5.46023298
_cell_angle_alpha   90.00000000
_cell_angle_beta   90.00000000
_cell_angle_gamma   90.00000000
_symmetry_Int_Tables_number   1
_chemical_formula_structural   NaCl
_chemical_formula_sum   'Na4 Cl4'
_cell_volume   192.42662174
_cell_formula_units_Z   4
loop_
 _symmetry_equiv_pos_site_id
 _symmetry_equiv_pos_as_xyz
  1  'x, y, z'
loop_
 _atom_site_type_symbol
 _atom_site_label
 _atom_site_symmetry_multiplicity
 _atom_site_fract_x
 _atom_site_fract_y
 _atom_site_fract_z
 _atom_site_occupancy
  Na  Na0  1  0.54498996  0.52380987  0.60026362  1.0
  Na  Na1  1  0.69004345  0.61282388  0.80631633  1.0
  Na  Na2  1  0.54654864  0.32159941  0.25352686  1.0
  Na  Na3  1  0.10636178  0.04855929  0.31584327  1.0
  Cl  Cl4  1  0.00000000  0.86128007  0.24837230  1.0
  Cl  Cl5  1  0.00000000  0.62716119  0.45962329  1.0
  Cl  Cl6  1  0.00000000  0.39035730  0.11870050  1.0
  Cl  Cl7  1  0.00000000  0.11546754  0.91309184  1.0
