# generated using pymatgen
data_NaCl
_symmetry_space_group_name_H-M   'P 1'
_cell_length_a   4.87618248
_cell_length_b   4.87618248
_cell_length_c   4.87618248
_cell_angle_alpha   90.00000000
_cell_angle_beta   90.00000000
_cell_angle_gamma   90.00000000
_symmetry_Int_Tables_number   1
_chemical_formula_structural   NaCl
_chemical_formula_sum   'Na4 Cl4'
_cell_volume   115.94174945
_cell_formula_units_Z   4
loop_
 _symmetry_equiv_pos_site_id
 _symmetry_equiv_pos_as_xyz
  1  'x, y, z'
loop_
 _atom_site_type_symbol
 _atom_site_label
 _atom_site_symmetry_multiplicity
 _atom_site_fract_x
 _atom_site_fract_y
 _atom_site_fract_z
 _atom_site_occupancy
  Na  Na0  1  0.42361953  0.42361953  0.42361953  1.0
  Na  Na1  1  0.88064722  0.38064722  0.11935278  1.0
  Na  Na2  1  0.53375163  0.96624837  0.03375163  1.0
  Na  Na3  1  0.36658599  0.63341401  0.13341401  1.0
  Cl  Cl4  1  0.86176986  0.86176986  0.86176986  1.0
  Cl  Cl5  1  0.31191125  0.81191125  0.68808875  1.0
  Cl  Cl6  1  0.30783137  0.19216863  0.80783137  1.0
  Cl  Cl7  1  0.65494559  0.34505441  0.84505441  1.0
