# generated using pymatgen
data_NaCl
_symmetry_space_group_name_H-M   'P 1'
_cell_length_a   5.68884650
_cell_length_b   5.68884650
_cell_length_c   5.68884650
_cell_angle_alpha   90.00000000
_cell_angle_beta   90.00000000
_cell_angle_gamma   90.00000000
_symmetry_Int_Tables_number   1
_chemical_formula_structural   NaCl
_chemical_formula_sum   'Na4 Cl4'
_cell_volume   184.10799422
_cell_formula_units_Z   4
loop_
 _symmetry_equiv_pos_site_id
 _symmetry_equiv_pos_as_xyz
  1  'x, y, z'
loop_
 _atom_site_type_symbol
 _atom_site_label
 _atom_site_symmetry_multiplicity
 _atom_site_fract_x
 _atom_site_fract_y
 _atom_site_fract_z
 _atom_site_occupancy
  Na  Na0  1  0.61392289  0.61392289  0.61392289  1.0
  Na  Na1  1  0.82067048  0.32067048  0.17932952  1.0
  Na  Na2  1  0.30357953  0.19642047  0.80357953  1.0
  Na  Na3  1  0.20948802  0.79051198  0.29051198  1.0
  Cl  Cl4  1  0.90833466  0.90833466  0.90833466  1.0
  Cl  Cl5  1  0.41483389  0.91483389  0.58516611  1.0
  Cl  Cl6  1  0.07291006  0.42708994  0.57291006  1.0
  Cl  Cl7  1  0.04196979  0.95803021  0.45803021  1.0
