# generated using pymatgen
data_NaCl
_symmetry_space_group_name_H-M   'P 1'
_cell_length_a   6.57958676
_cell_length_b   6.57958676
_cell_length_c   9.06137822
_cell_angle_alpha   90.00000000
_cell_angle_beta   90.00000000
_cell_angle_gamma   90.00000000
_symmetry_Int_Tables_number   1
_chemical_formula_structural   NaCl
_chemical_formula_sum   'Na4 Cl4'
_cell_volume   392.27577958
_cell_formula_units_Z   4
loop_
 _symmetry_equiv_pos_site_id
 _symmetry_equiv_pos_as_xyz
  1  'x, y, z'
loop_
 _atom_site_type_symbol
 _atom_site_label
 _atom_site_symmetry_multiplicity
 _atom_site_fract_x
 _atom_site_fract_y
 _atom_site_fract_z
 _atom_site_occupancy
  Na  Na0  1  0.50323741  0.50323741  0.50000000  1.0
  Na  Na1  1  0.34822350  0.34822350  0.50000000  1.0
  Na  Na2  1  0.83393012  0.16606988  0.00000000  1.0
  Na  Na3  1  0.21021146  0.78978854  0.00000000  1.0
  Cl  Cl4  1  0.63755409  0.63755409  0.00000000  1.0
  Cl  Cl5  1  0.94344358  0.94344358  0.00000000  1.0
  Cl  Cl6  1  0.74377748  0.25622252  0.50000000  1.0
  Cl  Cl7  1  0.08386351  0.91613649  0.50000000  1.0
