# generated using pymatgen
data_NaCl
_symmetry_space_group_name_H-M   'P 1'
_cell_length_a   6.17172790
_cell_length_b   6.17172790
_cell_length_c   6.17172790
_cell_angle_alpha   90.00000000
_cell_angle_beta   90.00000000
_cell_angle_gamma   90.00000000
_symmetry_Int_Tables_number   1
_chemical_formula_structural   NaCl
_chemical_formula_sum   'Na4 Cl4'
_cell_volume   235.08250603
_cell_formula_units_Z   4
loop_
 _symmetry_equiv_pos_site_id
 _symmetry_equiv_pos_as_xyz
  1  'x, y, z'
loop_
 _atom_site_type_symbol
 _atom_site_label
 _atom_site_symmetry_multiplicity
 _atom_site_fract_x
 _atom_site_fract_y
 _atom_site_fract_z
 _atom_site_occupancy
  Na  Na0  1  0.69976776  0.69976776  0.69976776  1.0
  Na  Na1  1  0.86698502  0.36698502  0.13301498  1.0
  Na  Na2  1  0.81404251  0.68595749  0.31404251  1.0
  Na  Na3  1  0.41426639  0.58573361  0.08573361  1.0
  Cl  Cl4  1  0.90789866  0.90789866  0.90789866  1.0
  Cl  Cl5  1  0.37473356  0.87473356  0.62526644  1.0
  Cl  Cl6  1  0.32168812  0.17831188  0.82168812  1.0
  Cl  Cl7  1  0.16920142  0.83079858  0.33079858  1.0
