# generated using pymatgen
data_NaCl
_symmetry_space_group_name_H-M   'P 1'
_cell_length_a   4.97146400
_cell_length_b   4.97146400
_cell_length_c   7.37378318
_cell_angle_alpha   90.00000000
_cell_angle_beta   90.00000000
_cell_angle_gamma   90.00000000
_symmetry_Int_Tables_number   1
_chemical_formula_structural   NaCl
_chemical_formula_sum   'Na4 Cl4'
_cell_volume   182.24640123
_cell_formula_units_Z   4
loop_
 _symmetry_equiv_pos_site_id
 _symmetry_equiv_pos_as_xyz
  1  'x, y, z'
loop_
 _atom_site_type_symbol
 _atom_site_label
 _atom_site_symmetry_multiplicity
 _atom_site_fract_x
 _atom_site_fract_y
 _atom_site_fract_z
 _atom_site_occupancy
  Na  Na0  1  0.62632829  0.67263766  0.44346381  1.0
  Na  Na1  1  0.25567461  0.89827247  0.78480965  1.0
  Na  Na2  1  0.46345084  0.52886129  0.99346359  1.0
  Na  Na3  1  0.23654986  0.32615390  0.79485228  1.0
  Cl  Cl4  1  0.75029146  0.84074086  0.59465226  1.0
  Cl  Cl5  1  0.82896723  0.64826882  0.94865790  1.0
  Cl  Cl6  1  0.89924593  0.91581559  0.22112903  1.0
  Cl  Cl7  1  0.65600448  0.36907028  0.29431584  1.0
