# generated using pymatgen
data_NaCl
_symmetry_space_group_name_H-M   'P 1'
_cell_length_a   5.29896270
_cell_length_b   14.86903800
_cell_length_c   3.62590719
_cell_angle_alpha   90.00000000
_cell_angle_beta   90.00000000
_cell_angle_gamma   90.00000000
_symmetry_Int_Tables_number   1
_chemical_formula_structural   NaCl
_chemical_formula_sum   'Na4 Cl4'
_cell_volume   285.68695977
_cell_formula_units_Z   4
loop_
 _symmetry_equiv_pos_site_id
 _symmetry_equiv_pos_as_xyz
  1  'x, y, z'
loop_
 _atom_site_type_symbol
 _atom_site_label
 _atom_site_symmetry_multiplicity
 _atom_site_fract_x
 _atom_site_fract_y
 _atom_site_fract_z
 _atom_site_occupancy
  Na  Na0  1  0.60947795  0.50010279  0.25000000  1.0
  Na  Na1  1  0.48278329  0.71253607  0.75000000  1.0
  Na  Na2  1  0.50758976  0.19689496  0.25000000  1.0
  Na  Na3  1  0.71019973  0.86057958  0.75000000  1.0
  Cl  Cl4  1  0.61719550  0.25000000  0.00000000  1.0
  Cl  Cl5  1  0.83625873  0.75000000  0.50000000  1.0
  Cl  Cl6  1  0.27488408  0.75000000  0.00000000  1.0
  Cl  Cl7  1  0.57562163  0.25000000  0.50000000  1.0
