# generated using pymatgen
data_NaCl
_symmetry_space_group_name_H-M   'P 1'
_cell_length_a   6.16677520
_cell_length_b   6.16677520
_cell_length_c   6.16677520
_cell_angle_alpha   90.00000000
_cell_angle_beta   90.00000000
_cell_angle_gamma   90.00000000
_symmetry_Int_Tables_number   1
_chemical_formula_structural   NaCl
_chemical_formula_sum   'Na4 Cl4'
_cell_volume   234.51701169
_cell_formula_units_Z   4
loop_
 _symmetry_equiv_pos_site_id
 _symmetry_equiv_pos_as_xyz
  1  'x, y, z'
loop_
 _atom_site_type_symbol
 _atom_site_label
 _atom_site_symmetry_multiplicity
 _atom_site_fract_x
 _atom_site_fract_y
 _atom_site_fract_z
 _atom_site_occupancy
  Na  Na0  1  0.58361962  0.58361962  0.58361962  1.0
  Na  Na1  1  0.85283955  0.35283955  0.14716045  1.0
  Na  Na2  1  0.33416112  0.16583888  0.83416112  1.0
  Na  Na3  1  0.23106213  0.76893787  0.26893787  1.0
  Cl  Cl4  1  0.83267470  0.83267470  0.83267470  1.0
  Cl  Cl5  1  0.41137507  0.91137507  0.58862493  1.0
  Cl  Cl6  1  0.15528732  0.34471268  0.65528732  1.0
  Cl  Cl7  1  0.03794408  0.96205592  0.46205592  1.0
