# generated using pymatgen
data_NaCl
_symmetry_space_group_name_H-M   'P 1'
_cell_length_a   8.55522120
_cell_length_b   3.13633673
_cell_length_c   6.31614359
_cell_angle_alpha   90.00000000
_cell_angle_beta   38.19794550
_cell_angle_gamma   90.00000000
_symmetry_Int_Tables_number   1
_chemical_formula_structural   NaCl
_chemical_formula_sum   'Na4 Cl4'
_cell_volume   104.80005444
_cell_formula_units_Z   4
loop_
 _symmetry_equiv_pos_site_id
 _symmetry_equiv_pos_as_xyz
  1  'x, y, z'
loop_
 _atom_site_type_symbol
 _atom_site_label
 _atom_site_symmetry_multiplicity
 _atom_site_fract_x
 _atom_site_fract_y
 _atom_site_fract_z
 _atom_site_occupancy
  Na  Na0  1  0.53029637  0.65498020  0.51740378  1.0
  Na  Na1  1  0.26287035  0.80833983  0.80904693  1.0
  Na  Na2  1  0.92590074  0.94244124  0.71601046  1.0
  Na  Na3  1  0.15278700  0.44392717  0.70412756  1.0
  Cl  Cl4  1  0.73992997  0.67440146  0.50205158  1.0
  Cl  Cl5  1  0.16981428  0.29936307  0.49910006  1.0
  Cl  Cl6  1  0.32110780  0.93118816  0.00156832  1.0
  Cl  Cl7  1  0.94576211  0.70554178  0.07827206  1.0
