# generated using pymatgen
data_NaCl
_symmetry_space_group_name_H-M   'P 1'
_cell_length_a   5.08769220
_cell_length_b   5.08769220
_cell_length_c   13.81523466
_cell_angle_alpha   90.00000000
_cell_angle_beta   90.00000000
_cell_angle_gamma   120.00000000
_symmetry_Int_Tables_number   1
_chemical_formula_structural   NaCl
_chemical_formula_sum   'Na4 Cl4'
_cell_volume   309.69240587
_cell_formula_units_Z   4
loop_
 _symmetry_equiv_pos_site_id
 _symmetry_equiv_pos_as_xyz
  1  'x, y, z'
loop_
 _atom_site_type_symbol
 _atom_site_label
 _atom_site_symmetry_multiplicity
 _atom_site_fract_x
 _atom_site_fract_y
 _atom_site_fract_z
 _atom_site_occupancy
  Na  Na0  1  0.00000000  0.00000000  0.57049997  1.0
  Na  Na1  1  0.41981475  0.00000000  0.68672406  1.0
  Na  Na2  1  0.00000000  0.60665746  0.76962465  1.0
  Na  Na3  1  0.30097747  0.30097747  0.19964861  1.0
  Cl  Cl4  1  0.33333333  0.66666667  0.52327323  1.0
  Cl  Cl5  1  0.66666667  0.33333333  0.60389861  1.0
  Cl  Cl6  1  0.33333333  0.66666667  0.78337265  1.0
  Cl  Cl7  1  0.66666667  0.33333333  0.69829114  1.0
