# generated using pymatgen
data_NaCl
_symmetry_space_group_name_H-M   'P 1'
_cell_length_a   5.46038998
_cell_length_b   5.46038998
_cell_length_c   5.27853668
_cell_angle_alpha   90.00000000
_cell_angle_beta   90.00000000
_cell_angle_gamma   90.00000000
_symmetry_Int_Tables_number   1
_chemical_formula_structural   NaCl
_chemical_formula_sum   'Na4 Cl4'
_cell_volume   157.38410397
_cell_formula_units_Z   4
loop_
 _symmetry_equiv_pos_site_id
 _symmetry_equiv_pos_as_xyz
  1  'x, y, z'
loop_
 _atom_site_type_symbol
 _atom_site_label
 _atom_site_symmetry_multiplicity
 _atom_site_fract_x
 _atom_site_fract_y
 _atom_site_fract_z
 _atom_site_occupancy
  Na  Na0  1  0.54205023  0.79016750  0.74337913  1.0
  Na  Na1  1  0.34999733  0.85649647  0.11695898  1.0
  Na  Na2  1  0.39313026  0.43989965  0.95924984  1.0
  Na  Na3  1  0.10563544  0.09762913  0.99958394  1.0
  Cl  Cl4  1  0.86766321  0.53882282  0.39519517  1.0
  Cl  Cl5  1  0.90490809  0.96282599  0.02189466  1.0
  Cl  Cl6  1  0.84313672  0.79928623  0.07103619  1.0
  Cl  Cl7  1  0.81493026  0.37044731  0.53751816  1.0
