# generated using pymatgen
data_NaCl
_symmetry_space_group_name_H-M   'P 1'
_cell_length_a   7.94933936
_cell_length_b   3.69995656
_cell_length_c   8.13750245
_cell_angle_alpha   90.00000000
_cell_angle_beta   90.00000000
_cell_angle_gamma   90.00000000
_symmetry_Int_Tables_number   1
_chemical_formula_structural   NaCl
_chemical_formula_sum   'Na4 Cl4'
_cell_volume   239.34193348
_cell_formula_units_Z   4
loop_
 _symmetry_equiv_pos_site_id
 _symmetry_equiv_pos_as_xyz
  1  'x, y, z'
loop_
 _atom_site_type_symbol
 _atom_site_label
 _atom_site_symmetry_multiplicity
 _atom_site_fract_x
 _atom_site_fract_y
 _atom_site_fract_z
 _atom_site_occupancy
  Na  Na0  1  0.52394418  0.52504157  0.66504861  1.0
  Na  Na1  1  0.42869573  0.52453057  0.31759681  1.0
  Na  Na2  1  0.28150733  0.43051074  0.47953140  1.0
  Na  Na3  1  0.92452475  0.31175455  0.25196801  1.0
  Cl  Cl4  1  0.00000000  0.00000000  0.48631263  1.0
  Cl  Cl5  1  0.50000000  0.00000000  0.91609505  1.0
  Cl  Cl6  1  0.25000000  0.10714919  0.02152004  1.0
  Cl  Cl7  1  0.75000000  0.18408680  0.45890874  1.0
