# generated using pymatgen
data_NaCl
_symmetry_space_group_name_H-M   'P 1'
_cell_length_a   5.53728245
_cell_length_b   12.89135277
_cell_length_c   5.27822788
_cell_angle_alpha   90.00000000
_cell_angle_beta   39.38366145
_cell_angle_gamma   90.00000000
_symmetry_Int_Tables_number   1
_chemical_formula_structural   NaCl
_chemical_formula_sum   'Na4 Cl4'
_cell_volume   239.06823138
_cell_formula_units_Z   4
loop_
 _symmetry_equiv_pos_site_id
 _symmetry_equiv_pos_as_xyz
  1  'x, y, z'
loop_
 _atom_site_type_symbol
 _atom_site_label
 _atom_site_symmetry_multiplicity
 _atom_site_fract_x
 _atom_site_fract_y
 _atom_site_fract_z
 _atom_site_occupancy
  Na  Na0  1  0.47876467  0.62729176  0.55761670  1.0
  Na  Na1  1  0.40033447  0.75281164  0.32176631  1.0
  Na  Na2  1  0.50129165  0.76870090  0.67475550  1.0
  Na  Na3  1  0.18792181  0.50005478  0.82508904  1.0
  Cl  Cl4  1  0.80879091  0.48912955  0.60378149  1.0
  Cl  Cl5  1  0.86142750  0.67867123  0.44568426  1.0
  Cl  Cl6  1  0.77413679  0.19670185  0.42104798  1.0
  Cl  Cl7  1  0.33122478  0.24565443  0.44278227  1.0
