# generated using pymatgen
data_NaCl
_symmetry_space_group_name_H-M   'P 1'
_cell_length_a   6.29486182
_cell_length_b   6.29486182
_cell_length_c   5.14201522
_cell_angle_alpha   90.00000000
_cell_angle_beta   90.00000000
_cell_angle_gamma   90.00000000
_symmetry_Int_Tables_number   1
_chemical_formula_structural   NaCl
_chemical_formula_sum   'Na4 Cl4'
_cell_volume   203.75382028
_cell_formula_units_Z   4
loop_
 _symmetry_equiv_pos_site_id
 _symmetry_equiv_pos_as_xyz
  1  'x, y, z'
loop_
 _atom_site_type_symbol
 _atom_site_label
 _atom_site_symmetry_multiplicity
 _atom_site_fract_x
 _atom_site_fract_y
 _atom_site_fract_z
 _atom_site_occupancy
  Na  Na0  1  0.00000000  0.98389547  0.00000000  1.0
  Na  Na1  1  0.00000000  0.81734381  0.50000000  1.0
  Na  Na2  1  0.49246944  0.00000000  0.75000000  1.0
  Na  Na3  1  0.06990250  0.00000000  0.25000000  1.0
  Cl  Cl4  1  0.00000000  0.49975577  0.00000000  1.0
  Cl  Cl5  1  0.00000000  0.26455829  0.50000000  1.0
  Cl  Cl6  1  0.84745332  0.00000000  0.75000000  1.0
  Cl  Cl7  1  0.33505279  0.00000000  0.25000000  1.0
