# generated using pymatgen
data_NaCl
_symmetry_space_group_name_H-M   'P 1'
_cell_length_a   7.50080648
_cell_length_b   2.52626035
_cell_length_c   9.92564842
_cell_angle_alpha   90.00000000
_cell_angle_beta   51.31060395
_cell_angle_gamma   90.00000000
_symmetry_Int_Tables_number   1
_chemical_formula_structural   NaCl
_chemical_formula_sum   'Na4 Cl4'
_cell_volume   146.80590282
_cell_formula_units_Z   4
loop_
 _symmetry_equiv_pos_site_id
 _symmetry_equiv_pos_as_xyz
  1  'x, y, z'
loop_
 _atom_site_type_symbol
 _atom_site_label
 _atom_site_symmetry_multiplicity
 _atom_site_fract_x
 _atom_site_fract_y
 _atom_site_fract_z
 _atom_site_occupancy
  Na  Na0  1  0.66701817  0.96590583  0.63387164  1.0
  Na  Na1  1  0.49454065  0.84345510  0.92447171  1.0
  Na  Na2  1  0.61034771  0.62204048  0.46659380  1.0
  Na  Na3  1  0.24010657  0.63843811  0.69756141  1.0
  Cl  Cl4  1  0.75961204  0.58823220  0.47627593  1.0
  Cl  Cl5  1  0.91003366  0.22719687  0.31890110  1.0
  Cl  Cl6  1  0.99909475  0.26907064  0.18853383  1.0
  Cl  Cl7  1  0.48941381  0.35067534  0.43315920  1.0
