# generated using pymatgen
data_NaCl
_symmetry_space_group_name_H-M   'P 1'
_cell_length_a   2.80562888
_cell_length_b   12.46101289
_cell_length_c   6.40527488
_cell_angle_alpha   90.00000000
_cell_angle_beta   29.84356161
_cell_angle_gamma   90.00000000
_symmetry_Int_Tables_number   1
_chemical_formula_structural   NaCl
_chemical_formula_sum   'Na4 Cl4'
_cell_volume   111.43741104
_cell_formula_units_Z   4
loop_
 _symmetry_equiv_pos_site_id
 _symmetry_equiv_pos_as_xyz
  1  'x, y, z'
loop_
 _atom_site_type_symbol
 _atom_site_label
 _atom_site_symmetry_multiplicity
 _atom_site_fract_x
 _atom_site_fract_y
 _atom_site_fract_z
 _atom_site_occupancy
  Na  Na0  1  0.33341999  0.85789215  0.88976123  1.0
  Na  Na1  1  0.39476754  0.16580740  0.73030566  1.0
  Na  Na2  1  0.62789948  0.40441715  0.45303074  1.0
  Na  Na3  1  0.42456392  0.35923667  0.07258853  1.0
  Cl  Cl4  1  0.00000000  0.00000000  0.50000000  1.0
  Cl  Cl5  1  0.00000000  0.50000000  0.50000000  1.0
  Cl  Cl6  1  0.72442743  0.25000000  0.11285685  1.0
  Cl  Cl7  1  0.21468035  0.75000000  0.50285785  1.0
