# generated using pymatgen
data_NaCl
_symmetry_space_group_name_H-M   'P 1'
_cell_length_a   2.37191385
_cell_length_b   7.51619468
_cell_length_c   18.58889638
_cell_angle_alpha   90.00000000
_cell_angle_beta   30.33134948
_cell_angle_gamma   90.00000000
_symmetry_Int_Tables_number   1
_chemical_formula_structural   NaCl
_chemical_formula_sum   'Na4 Cl4'
_cell_volume   167.35622796
_cell_formula_units_Z   4
loop_
 _symmetry_equiv_pos_site_id
 _symmetry_equiv_pos_as_xyz
  1  'x, y, z'
loop_
 _atom_site_type_symbol
 _atom_site_label
 _atom_site_symmetry_multiplicity
 _atom_site_fract_x
 _atom_site_fract_y
 _atom_site_fract_z
 _atom_site_occupancy
  Na  Na0  1  0.38462984  0.80622721  0.45450769  1.0
  Na  Na1  1  0.43858694  0.36434946  0.93574408  1.0
  Na  Na2  1  0.46233190  0.35011207  0.26682073  1.0
  Na  Na3  1  0.59932162  0.53034558  0.19526562  1.0
  Cl  Cl4  1  0.00000000  0.50000000  0.00000000  1.0
  Cl  Cl5  1  0.00000000  0.50000000  0.50000000  1.0
  Cl  Cl6  1  0.50000000  0.14119982  0.25000000  1.0
  Cl  Cl7  1  0.50000000  0.50011731  0.75000000  1.0
