# generated using pymatgen
data_NaCl
_symmetry_space_group_name_H-M   'P 1'
_cell_length_a   11.90771546
_cell_length_b   4.08418382
_cell_length_c   4.13521241
_cell_angle_alpha   90.00000000
_cell_angle_beta   90.00000000
_cell_angle_gamma   90.00000000
_symmetry_Int_Tables_number   1
_chemical_formula_structural   NaCl
_chemical_formula_sum   'Na4 Cl4'
_cell_volume   201.10902080
_cell_formula_units_Z   4
loop_
 _symmetry_equiv_pos_site_id
 _symmetry_equiv_pos_as_xyz
  1  'x, y, z'
loop_
 _atom_site_type_symbol
 _atom_site_label
 _atom_site_symmetry_multiplicity
 _atom_site_fract_x
 _atom_site_fract_y
 _atom_site_fract_z
 _atom_site_occupancy
  Na  Na0  1  0.45750022  0.25000000  0.60254636  1.0
  Na  Na1  1  0.22408598  0.75000000  0.50092038  1.0
  Na  Na2  1  0.47166493  0.75000000  0.31178404  1.0
  Na  Na3  1  0.11464664  0.25000000  0.41826612  1.0
  Cl  Cl4  1  0.64437866  0.25000000  0.31207563  1.0
  Cl  Cl5  1  0.24650333  0.75000000  0.15006140  1.0
  Cl  Cl6  1  0.16454434  0.75000000  0.95655415  1.0
  Cl  Cl7  1  0.32792397  0.25000000  0.75277298  1.0
