# generated using pymatgen
data_NaCl
_symmetry_space_group_name_H-M   'P 1'
_cell_length_a   6.98009162
_cell_length_b   6.98009162
_cell_length_c   6.24670442
_cell_angle_alpha   90.00000000
_cell_angle_beta   90.00000000
_cell_angle_gamma   90.00000000
_symmetry_Int_Tables_number   1
_chemical_formula_structural   NaCl
_chemical_formula_sum   'Na4 Cl4'
_cell_volume   304.34992771
_cell_formula_units_Z   4
loop_
 _symmetry_equiv_pos_site_id
 _symmetry_equiv_pos_as_xyz
  1  'x, y, z'
loop_
 _atom_site_type_symbol
 _atom_site_label
 _atom_site_symmetry_multiplicity
 _atom_site_fract_x
 _atom_site_fract_y
 _atom_site_fract_z
 _atom_site_occupancy
  Na  Na0  1  0.68328530  0.18739819  0.00000000  1.0
  Na  Na1  1  0.04317300  0.76090657  0.00000000  1.0
  Na  Na2  1  0.33681247  0.43307978  0.50000000  1.0
  Na  Na3  1  0.87893189  0.14194946  0.50000000  1.0
  Cl  Cl4  1  0.80369537  0.73275355  0.00000000  1.0
  Cl  Cl5  1  0.86571386  0.43730078  0.00000000  1.0
  Cl  Cl6  1  0.93787496  0.94117951  0.50000000  1.0
  Cl  Cl7  1  0.94319460  0.48205173  0.50000000  1.0
