# generated using pymatgen
data_NaCl
_symmetry_space_group_name_H-M   'P 1'
_cell_length_a   3.46638943
_cell_length_b   3.46638943
_cell_length_c   15.50544098
_cell_angle_alpha   90.00000000
_cell_angle_beta   90.00000000
_cell_angle_gamma   90.00000000
_symmetry_Int_Tables_number   1
_chemical_formula_structural   NaCl
_chemical_formula_sum   'Na4 Cl4'
_cell_volume   186.31114108
_cell_formula_units_Z   4
loop_
 _symmetry_equiv_pos_site_id
 _symmetry_equiv_pos_as_xyz
  1  'x, y, z'
loop_
 _atom_site_type_symbol
 _atom_site_label
 _atom_site_symmetry_multiplicity
 _atom_site_fract_x
 _atom_site_fract_y
 _atom_site_fract_z
 _atom_site_occupancy
  Na  Na0  1  0.81530111  0.00000000  0.53950289  1.0
  Na  Na1  1  0.36598495  0.00000000  0.48616167  1.0
  Na  Na2  1  0.00000000  0.45357152  0.86807061  1.0
  Na  Na3  1  0.00000000  0.45994666  0.11191948  1.0
  Cl  Cl4  1  0.65846362  0.65846362  0.27072571  1.0
  Cl  Cl5  1  0.78598656  0.78598656  0.48798754  1.0
  Cl  Cl6  1  0.25735162  0.74264838  0.86619323  1.0
  Cl  Cl7  1  0.63471266  0.36528734  0.44378891  1.0
