# generated using pymatgen
data_NaCl
_symmetry_space_group_name_H-M   'P 1'
_cell_length_a   3.83714477
_cell_length_b   23.26416231
_cell_length_c   2.03166872
_cell_angle_alpha   90.00000000
_cell_angle_beta   90.00000000
_cell_angle_gamma   90.00000000
_symmetry_Int_Tables_number   1
_chemical_formula_structural   NaCl
_chemical_formula_sum   'Na4 Cl4'
_cell_volume   181.36291946
_cell_formula_units_Z   4
loop_
 _symmetry_equiv_pos_site_id
 _symmetry_equiv_pos_as_xyz
  1  'x, y, z'
loop_
 _atom_site_type_symbol
 _atom_site_label
 _atom_site_symmetry_multiplicity
 _atom_site_fract_x
 _atom_site_fract_y
 _atom_site_fract_z
 _atom_site_occupancy
  Na  Na0  1  0.68696957  0.88874201  0.71143895  1.0
  Na  Na1  1  0.32233267  0.83599965  0.38606118  1.0
  Na  Na2  1  0.98855670  0.60721126  0.81969892  1.0
  Na  Na3  1  0.89836342  0.03163374  0.81715404  1.0
  Cl  Cl4  1  0.82472452  0.59202767  0.41108131  1.0
  Cl  Cl5  1  0.82267488  0.10558076  0.03207123  1.0
  Cl  Cl6  1  0.40037842  0.81008443  0.89872947  1.0
  Cl  Cl7  1  0.77058909  0.34641856  0.32633263  1.0
