# generated using pymatgen
data_NaCl
_symmetry_space_group_name_H-M   'P 1'
_cell_length_a   5.38023795
_cell_length_b   5.38023795
_cell_length_c   5.59731068
_cell_angle_alpha   90.00000000
_cell_angle_beta   90.00000000
_cell_angle_gamma   90.00000000
_symmetry_Int_Tables_number   1
_chemical_formula_structural   NaCl
_chemical_formula_sum   'Na4 Cl4'
_cell_volume   162.02513059
_cell_formula_units_Z   4
loop_
 _symmetry_equiv_pos_site_id
 _symmetry_equiv_pos_as_xyz
  1  'x, y, z'
loop_
 _atom_site_type_symbol
 _atom_site_label
 _atom_site_symmetry_multiplicity
 _atom_site_fract_x
 _atom_site_fract_y
 _atom_site_fract_z
 _atom_site_occupancy
  Na  Na0  1  0.46868189  0.70519105  0.56708633  1.0
  Na  Na1  1  0.37898006  0.80431487  0.21486555  1.0
  Na  Na2  1  0.41430694  0.47065393  0.47144892  1.0
  Na  Na3  1  0.05613647  0.17498840  0.44265391  1.0
  Cl  Cl4  1  0.83672993  0.53314660  0.33627875  1.0
  Cl  Cl5  1  0.94783144  0.59529357  0.01842722  1.0
  Cl  Cl6  1  0.76722305  0.74040227  0.32652764  1.0
  Cl  Cl7  1  0.27790255  0.33703725  0.84117416  1.0
