# generated using pymatgen
data_NaCl
_symmetry_space_group_name_H-M   'P 1'
_cell_length_a   5.16660214
_cell_length_b   5.16660214
_cell_length_c   5.97343060
_cell_angle_alpha   90.00000000
_cell_angle_beta   90.00000000
_cell_angle_gamma   90.00000000
_symmetry_Int_Tables_number   1
_chemical_formula_structural   NaCl
_chemical_formula_sum   'Na4 Cl4'
_cell_volume   159.45342838
_cell_formula_units_Z   4
loop_
 _symmetry_equiv_pos_site_id
 _symmetry_equiv_pos_as_xyz
  1  'x, y, z'
loop_
 _atom_site_type_symbol
 _atom_site_label
 _atom_site_symmetry_multiplicity
 _atom_site_fract_x
 _atom_site_fract_y
 _atom_site_fract_z
 _atom_site_occupancy
  Na  Na0  1  0.36910461  0.86910461  0.61993651  1.0
  Na  Na1  1  0.48555597  0.98555597  0.26426385  1.0
  Na  Na2  1  0.22812573  0.27187427  0.49953209  1.0
  Na  Na3  1  0.91802761  0.58197239  0.84424731  1.0
  Cl  Cl4  1  0.00000000  0.00000000  0.21007302  1.0
  Cl  Cl5  1  0.00000000  0.00000000  0.43094004  1.0
  Cl  Cl6  1  0.50000000  0.50000000  0.97859399  1.0
  Cl  Cl7  1  0.50000000  0.50000000  0.38428517  1.0
