# generated using pymatgen
data_NaCl
_symmetry_space_group_name_H-M   'P 1'
_cell_length_a   9.77184220
_cell_length_b   9.77184220
_cell_length_c   2.03492018
_cell_angle_alpha   90.00000000
_cell_angle_beta   90.00000000
_cell_angle_gamma   90.00000000
_symmetry_Int_Tables_number   1
_chemical_formula_structural   NaCl
_chemical_formula_sum   'Na4 Cl4'
_cell_volume   194.31228954
_cell_formula_units_Z   4
loop_
 _symmetry_equiv_pos_site_id
 _symmetry_equiv_pos_as_xyz
  1  'x, y, z'
loop_
 _atom_site_type_symbol
 _atom_site_label
 _atom_site_symmetry_multiplicity
 _atom_site_fract_x
 _atom_site_fract_y
 _atom_site_fract_z
 _atom_site_occupancy
  Na  Na0  1  0.33174935  0.81435438  0.70652083  1.0
  Na  Na1  1  0.45961823  0.65183555  0.67919629  1.0
  Na  Na2  1  0.28022935  0.52972783  0.74520685  1.0
  Na  Na3  1  0.19998727  0.16501546  0.50118030  1.0
  Cl  Cl4  1  0.91611671  0.57753353  0.46238116  1.0
  Cl  Cl5  1  0.94957133  0.24639858  0.98063557  1.0
  Cl  Cl6  1  0.96101374  0.64232690  0.25152705  1.0
  Cl  Cl7  1  0.81432843  0.41389058  0.43398561  1.0
