# generated using pymatgen
data_NaCl
_symmetry_space_group_name_H-M   'P 1'
_cell_length_a   6.94256363
_cell_length_b   6.94256363
_cell_length_c   7.99942064
_cell_angle_alpha   90.00000000
_cell_angle_beta   90.00000000
_cell_angle_gamma   90.00000000
_symmetry_Int_Tables_number   1
_chemical_formula_structural   NaCl
_chemical_formula_sum   'Na4 Cl4'
_cell_volume   385.56559337
_cell_formula_units_Z   4
loop_
 _symmetry_equiv_pos_site_id
 _symmetry_equiv_pos_as_xyz
  1  'x, y, z'
loop_
 _atom_site_type_symbol
 _atom_site_label
 _atom_site_symmetry_multiplicity
 _atom_site_fract_x
 _atom_site_fract_y
 _atom_site_fract_z
 _atom_site_occupancy
  Na  Na0  1  0.55031722  0.64464980  0.59547286  1.0
  Na  Na1  1  0.50222895  0.60367327  0.22685554  1.0
  Na  Na2  1  0.22384935  0.56170985  0.95965652  1.0
  Na  Na3  1  0.85519105  0.25495280  0.87858745  1.0
  Cl  Cl4  1  0.69503957  0.48811133  0.54018312  1.0
  Cl  Cl5  1  0.96529909  0.91158428  0.41379804  1.0
  Cl  Cl6  1  0.81779106  0.68413679  0.15463399  1.0
  Cl  Cl7  1  0.73457272  0.45085793  0.36017660  1.0
