# generated using pymatgen
data_NaCl
_symmetry_space_group_name_H-M   'P 1'
_cell_length_a   9.77885638
_cell_length_b   8.10898473
_cell_length_c   4.81289849
_cell_angle_alpha   90.00000000
_cell_angle_beta   43.55008629
_cell_angle_gamma   90.00000000
_symmetry_Int_Tables_number   1
_chemical_formula_structural   NaCl
_chemical_formula_sum   'Na4 Cl4'
_cell_volume   262.94999748
_cell_formula_units_Z   4
loop_
 _symmetry_equiv_pos_site_id
 _symmetry_equiv_pos_as_xyz
  1  'x, y, z'
loop_
 _atom_site_type_symbol
 _atom_site_label
 _atom_site_symmetry_multiplicity
 _atom_site_fract_x
 _atom_site_fract_y
 _atom_site_fract_z
 _atom_site_occupancy
  Na  Na0  1  0.50489795  0.79622043  0.67032337  1.0
  Na  Na1  1  0.64441916  0.44753936  0.65271801  1.0
  Na  Na2  1  0.96149470  0.11790188  0.33650996  1.0
  Na  Na3  1  0.11369265  0.40679036  0.65602335  1.0
  Cl  Cl4  1  0.74926778  0.52833769  0.34431295  1.0
  Cl  Cl5  1  0.06482055  0.31283023  0.17470464  1.0
  Cl  Cl6  1  0.43344971  0.52134068  0.07126908  1.0
  Cl  Cl7  1  0.53919814  0.80198187  0.93436364  1.0
