# generated using pymatgen
data_NaCl
_symmetry_space_group_name_H-M   'P 1'
_cell_length_a   5.46796295
_cell_length_b   2.56269633
_cell_length_c   20.52545622
_cell_angle_alpha   90.00000000
_cell_angle_beta   90.00000000
_cell_angle_gamma   90.00000000
_symmetry_Int_Tables_number   1
_chemical_formula_structural   NaCl
_chemical_formula_sum   'Na4 Cl4'
_cell_volume   287.61764708
_cell_formula_units_Z   4
loop_
 _symmetry_equiv_pos_site_id
 _symmetry_equiv_pos_as_xyz
  1  'x, y, z'
loop_
 _atom_site_type_symbol
 _atom_site_label
 _atom_site_symmetry_multiplicity
 _atom_site_fract_x
 _atom_site_fract_y
 _atom_site_fract_z
 _atom_site_occupancy
  Na  Na0  1  0.59666323  0.67456206  0.70879838  1.0
  Na  Na1  1  0.88116374  0.76005467  0.85442347  1.0
  Na  Na2  1  0.21365437  0.51728204  0.06746103  1.0
  Na  Na3  1  0.25365817  0.30777317  0.46420234  1.0
  Cl  Cl4  1  0.69733593  0.52704891  0.22858524  1.0
  Cl  Cl5  1  0.34875783  0.64148704  0.98107507  1.0
  Cl  Cl6  1  0.35020710  0.83377513  0.63569271  1.0
  Cl  Cl7  1  0.42045855  0.86765451  0.54653773  1.0
