# generated using pymatgen
data_NaCl
_symmetry_space_group_name_H-M   'P 1'
_cell_length_a   6.04648582
_cell_length_b   6.04648582
_cell_length_c   6.04648582
_cell_angle_alpha   90.00000000
_cell_angle_beta   90.00000000
_cell_angle_gamma   90.00000000
_symmetry_Int_Tables_number   1
_chemical_formula_structural   NaCl
_chemical_formula_sum   'Na4 Cl4'
_cell_volume   221.05946578
_cell_formula_units_Z   4
loop_
 _symmetry_equiv_pos_site_id
 _symmetry_equiv_pos_as_xyz
  1  'x, y, z'
loop_
 _atom_site_type_symbol
 _atom_site_label
 _atom_site_symmetry_multiplicity
 _atom_site_fract_x
 _atom_site_fract_y
 _atom_site_fract_z
 _atom_site_occupancy
  Na  Na0  1  0.48979447  0.48979447  0.48979447  1.0
  Na  Na1  1  0.06638850  0.56638850  0.93361150  1.0
  Na  Na2  1  0.52803730  0.97196270  0.02803730  1.0
  Na  Na3  1  0.23293577  0.76706423  0.26706423  1.0
  Cl  Cl4  1  0.75875713  0.75875713  0.75875713  1.0
  Cl  Cl5  1  0.48282092  0.98282092  0.51717908  1.0
  Cl  Cl6  1  0.31095221  0.18904779  0.81095221  1.0
  Cl  Cl7  1  0.10773849  0.89226151  0.39226151  1.0
