# generated using pymatgen
data_NaCl
_symmetry_space_group_name_H-M   'P 1'
_cell_length_a   20.96131032
_cell_length_b   2.76431577
_cell_length_c   2.90323488
_cell_angle_alpha   90.00000000
_cell_angle_beta   90.00000000
_cell_angle_gamma   90.00000000
_symmetry_Int_Tables_number   1
_chemical_formula_structural   NaCl
_chemical_formula_sum   'Na4 Cl4'
_cell_volume   168.22411482
_cell_formula_units_Z   4
loop_
 _symmetry_equiv_pos_site_id
 _symmetry_equiv_pos_as_xyz
  1  'x, y, z'
loop_
 _atom_site_type_symbol
 _atom_site_label
 _atom_site_symmetry_multiplicity
 _atom_site_fract_x
 _atom_site_fract_y
 _atom_site_fract_z
 _atom_site_occupancy
  Na  Na0  1  0.40058069  0.70085230  0.56791617  1.0
  Na  Na1  1  0.28007429  0.46011968  0.52046253  1.0
  Na  Na2  1  0.04899438  0.69850912  0.73280378  1.0
  Na  Na3  1  0.53983442  0.75380994  0.79430652  1.0
  Cl  Cl4  1  0.71228499  0.64284679  0.42992539  1.0
  Cl  Cl5  1  0.90571185  0.23107357  0.22415089  1.0
  Cl  Cl6  1  0.44771571  0.96524423  0.32632965  1.0
  Cl  Cl7  1  0.86041488  0.35142974  0.02592778  1.0
