# generated using pymatgen
data_NaCl
_symmetry_space_group_name_H-M   'P 1'
_cell_length_a   6.23924920
_cell_length_b   6.23924920
_cell_length_c   6.23924920
_cell_angle_alpha   90.00000000
_cell_angle_beta   90.00000000
_cell_angle_gamma   90.00000000
_symmetry_Int_Tables_number   1
_chemical_formula_structural   NaCl
_chemical_formula_sum   'Na4 Cl4'
_cell_volume   242.88293150
_cell_formula_units_Z   4
loop_
 _symmetry_equiv_pos_site_id
 _symmetry_equiv_pos_as_xyz
  1  'x, y, z'
loop_
 _atom_site_type_symbol
 _atom_site_label
 _atom_site_symmetry_multiplicity
 _atom_site_fract_x
 _atom_site_fract_y
 _atom_site_fract_z
 _atom_site_occupancy
  Na  Na0  1  0.64919620  0.64919620  0.64919620  1.0
  Na  Na1  1  0.18780755  0.68780755  0.81219245  1.0
  Na  Na2  1  0.49337143  0.00662857  0.99337143  1.0
  Na  Na3  1  0.79425167  0.20574833  0.70574833  1.0
  Cl  Cl4  1  0.54822498  0.54822498  0.54822498  1.0
  Cl  Cl5  1  0.92195989  0.42195989  0.07804011  1.0
  Cl  Cl6  1  0.11979903  0.38020097  0.61979903  1.0
  Cl  Cl7  1  0.05285852  0.94714148  0.44714148  1.0
