# generated using pymatgen
data_NaCl
_symmetry_space_group_name_H-M   'P 1'
_cell_length_a   4.82055111
_cell_length_b   4.82055111
_cell_length_c   9.66086471
_cell_angle_alpha   90.00000000
_cell_angle_beta   90.00000000
_cell_angle_gamma   90.00000000
_symmetry_Int_Tables_number   1
_chemical_formula_structural   NaCl
_chemical_formula_sum   'Na4 Cl4'
_cell_volume   224.49640150
_cell_formula_units_Z   4
loop_
 _symmetry_equiv_pos_site_id
 _symmetry_equiv_pos_as_xyz
  1  'x, y, z'
loop_
 _atom_site_type_symbol
 _atom_site_label
 _atom_site_symmetry_multiplicity
 _atom_site_fract_x
 _atom_site_fract_y
 _atom_site_fract_z
 _atom_site_occupancy
  Na  Na0  1  0.71884660  0.67750847  0.23449908  1.0
  Na  Na1  1  0.76081248  0.24896953  0.48040705  1.0
  Na  Na2  1  0.08540082  0.49922770  0.91208258  1.0
  Na  Na3  1  0.30192042  0.09374243  0.63167546  1.0
  Cl  Cl4  1  0.41234776  0.16151946  0.30722365  1.0
  Cl  Cl5  1  0.64854480  0.60012496  0.90273677  1.0
  Cl  Cl6  1  0.00231939  0.80828551  0.65019811  1.0
  Cl  Cl7  1  0.32473016  0.62578003  0.19083134  1.0
