# generated using pymatgen
data_NaCl
_symmetry_space_group_name_H-M   'P 1'
_cell_length_a   4.23346597
_cell_length_b   16.22074226
_cell_length_c   4.11963681
_cell_angle_alpha   90.00000000
_cell_angle_beta   90.00000000
_cell_angle_gamma   90.00000000
_symmetry_Int_Tables_number   1
_chemical_formula_structural   NaCl
_chemical_formula_sum   'Na4 Cl4'
_cell_volume   282.89529646
_cell_formula_units_Z   4
loop_
 _symmetry_equiv_pos_site_id
 _symmetry_equiv_pos_as_xyz
  1  'x, y, z'
loop_
 _atom_site_type_symbol
 _atom_site_label
 _atom_site_symmetry_multiplicity
 _atom_site_fract_x
 _atom_site_fract_y
 _atom_site_fract_z
 _atom_site_occupancy
  Na  Na0  1  0.25000000  0.72281942  0.20418001  1.0
  Na  Na1  1  0.75000000  0.38390315  0.02027379  1.0
  Na  Na2  1  0.25000000  0.86539097  0.45074608  1.0
  Na  Na3  1  0.75000000  0.46444616  0.85428272  1.0
  Cl  Cl4  1  0.00000000  0.00000000  0.53367086  1.0
  Cl  Cl5  1  0.50000000  0.00000000  0.30477495  1.0
  Cl  Cl6  1  0.25000000  0.77369463  0.47772888  1.0
  Cl  Cl7  1  0.75000000  0.13775098  0.26361567  1.0
