# generated using pymatgen
data_NaCl
_symmetry_space_group_name_H-M   'P 1'
_cell_length_a   5.65068551
_cell_length_b   22.04897127
_cell_length_c   3.20756962
_cell_angle_alpha   90.00000000
_cell_angle_beta   90.00000000
_cell_angle_gamma   90.00000000
_symmetry_Int_Tables_number   1
_chemical_formula_structural   NaCl
_chemical_formula_sum   'Na4 Cl4'
_cell_volume   399.63688049
_cell_formula_units_Z   4
loop_
 _symmetry_equiv_pos_site_id
 _symmetry_equiv_pos_as_xyz
  1  'x, y, z'
loop_
 _atom_site_type_symbol
 _atom_site_label
 _atom_site_symmetry_multiplicity
 _atom_site_fract_x
 _atom_site_fract_y
 _atom_site_fract_z
 _atom_site_occupancy
  Na  Na0  1  0.58413665  0.49909819  0.58583365  1.0
  Na  Na1  1  0.22931012  0.26360658  0.37818138  1.0
  Na  Na2  1  0.83082683  0.58635017  0.17359325  1.0
  Na  Na3  1  0.75021825  0.85221724  0.38982342  1.0
  Cl  Cl4  1  0.23770467  0.57240734  0.33052036  1.0
  Cl  Cl5  1  0.54438830  0.16548632  0.89868709  1.0
  Cl  Cl6  1  0.27944696  0.96819916  0.54650818  1.0
  Cl  Cl7  1  0.97495266  0.92875932  0.76970117  1.0
