# generated using pymatgen
data_NaCl
_symmetry_space_group_name_H-M   'P 1'
_cell_length_a   4.82431273
_cell_length_b   8.16462027
_cell_length_c   6.65300254
_cell_angle_alpha   90.00000000
_cell_angle_beta   95.23629381
_cell_angle_gamma   90.00000000
_symmetry_Int_Tables_number   1
_chemical_formula_structural   NaCl
_chemical_formula_sum   'Na4 Cl4'
_cell_volume   260.95939536
_cell_formula_units_Z   4
loop_
 _symmetry_equiv_pos_site_id
 _symmetry_equiv_pos_as_xyz
  1  'x, y, z'
loop_
 _atom_site_type_symbol
 _atom_site_label
 _atom_site_symmetry_multiplicity
 _atom_site_fract_x
 _atom_site_fract_y
 _atom_site_fract_z
 _atom_site_occupancy
  Na  Na0  1  0.50000000  0.00000000  0.00000000  1.0
  Na  Na1  1  0.50000000  0.50000000  0.50000000  1.0
  Na  Na2  1  0.50000000  0.00000000  0.50000000  1.0
  Na  Na3  1  0.50000000  0.50000000  0.00000000  1.0
  Cl  Cl4  1  0.97507663  0.11479328  0.08487572  1.0
  Cl  Cl5  1  0.56436118  0.36939389  0.89388628  1.0
  Cl  Cl6  1  0.02936712  0.85982514  0.32176587  1.0
  Cl  Cl7  1  0.33350395  0.48103317  0.21151372  1.0
