# generated using pymatgen
data_NaCl
_symmetry_space_group_name_H-M   'P 1'
_cell_length_a   5.50735571
_cell_length_b   13.61769682
_cell_length_c   3.43911455
_cell_angle_alpha   90.00000000
_cell_angle_beta   63.01089218
_cell_angle_gamma   90.00000000
_symmetry_Int_Tables_number   1
_chemical_formula_structural   NaCl
_chemical_formula_sum   'Na4 Cl4'
_cell_volume   229.83510918
_cell_formula_units_Z   4
loop_
 _symmetry_equiv_pos_site_id
 _symmetry_equiv_pos_as_xyz
  1  'x, y, z'
loop_
 _atom_site_type_symbol
 _atom_site_label
 _atom_site_symmetry_multiplicity
 _atom_site_fract_x
 _atom_site_fract_y
 _atom_site_fract_z
 _atom_site_occupancy
  Na  Na0  1  0.46947636  0.46743460  0.10270981  1.0
  Na  Na1  1  0.57414932  0.19690375  0.22371555  1.0
  Na  Na2  1  0.49452230  0.40948227  0.51910581  1.0
  Na  Na3  1  0.16890957  0.10142071  0.30747412  1.0
  Cl  Cl4  1  0.64763826  0.64972081  0.66365824  1.0
  Cl  Cl5  1  0.32388417  0.15622940  0.86385200  1.0
  Cl  Cl6  1  0.27855608  0.48428018  0.45239752  1.0
  Cl  Cl7  1  0.96012091  0.21410259  0.71324892  1.0
