# generated using pymatgen
data_NaCl
_symmetry_space_group_name_H-M   'P 1'
_cell_length_a   7.08863005
_cell_length_b   3.32058107
_cell_length_c   16.32823006
_cell_angle_alpha   90.00000000
_cell_angle_beta   77.59771483
_cell_angle_gamma   90.00000000
_symmetry_Int_Tables_number   1
_chemical_formula_structural   NaCl
_chemical_formula_sum   'Na4 Cl4'
_cell_volume   375.37086601
_cell_formula_units_Z   4
loop_
 _symmetry_equiv_pos_site_id
 _symmetry_equiv_pos_as_xyz
  1  'x, y, z'
loop_
 _atom_site_type_symbol
 _atom_site_label
 _atom_site_symmetry_multiplicity
 _atom_site_fract_x
 _atom_site_fract_y
 _atom_site_fract_z
 _atom_site_occupancy
  Na  Na0  1  0.93407249  0.90371425  0.54203556  1.0
  Na  Na1  1  0.94001080  0.31160985  0.08623868  1.0
  Na  Na2  1  0.37805224  0.69093008  0.29519528  1.0
  Na  Na3  1  0.41566438  0.88374580  0.17062293  1.0
  Cl  Cl4  1  0.72896119  0.83062174  0.61911648  1.0
  Cl  Cl5  1  0.55210308  0.27491646  0.78476777  1.0
  Cl  Cl6  1  0.29388992  0.12869527  0.90496290  1.0
  Cl  Cl7  1  0.47577882  0.93444996  0.61082895  1.0
