# generated using pymatgen
data_NaCl
_symmetry_space_group_name_H-M   'P 1'
_cell_length_a   6.25158680
_cell_length_b   6.25158680
_cell_length_c   6.25158680
_cell_angle_alpha   90.00000000
_cell_angle_beta   90.00000000
_cell_angle_gamma   90.00000000
_symmetry_Int_Tables_number   1
_chemical_formula_structural   NaCl
_chemical_formula_sum   'Na4 Cl4'
_cell_volume   244.32662534
_cell_formula_units_Z   4
loop_
 _symmetry_equiv_pos_site_id
 _symmetry_equiv_pos_as_xyz
  1  'x, y, z'
loop_
 _atom_site_type_symbol
 _atom_site_label
 _atom_site_symmetry_multiplicity
 _atom_site_fract_x
 _atom_site_fract_y
 _atom_site_fract_z
 _atom_site_occupancy
  Na  Na0  1  0.66412083  0.66412083  0.66412083  1.0
  Na  Na1  1  0.15327610  0.65327610  0.84672390  1.0
  Na  Na2  1  0.68322299  0.81677701  0.18322299  1.0
  Na  Na3  1  0.24071814  0.75928186  0.25928186  1.0
  Cl  Cl4  1  0.48077686  0.48077686  0.48077686  1.0
  Cl  Cl5  1  0.02427499  0.52427499  0.97572501  1.0
  Cl  Cl6  1  0.24810189  0.25189811  0.74810189  1.0
  Cl  Cl7  1  0.86127725  0.13872275  0.63872275  1.0
