# generated using pymatgen
data_NaCl
_symmetry_space_group_name_H-M   'P 1'
_cell_length_a   4.35024707
_cell_length_b   13.22948504
_cell_length_c   5.75132382
_cell_angle_alpha   90.00000000
_cell_angle_beta   90.00000000
_cell_angle_gamma   90.00000000
_symmetry_Int_Tables_number   1
_chemical_formula_structural   NaCl
_chemical_formula_sum   'Na4 Cl4'
_cell_volume   330.99747693
_cell_formula_units_Z   4
loop_
 _symmetry_equiv_pos_site_id
 _symmetry_equiv_pos_as_xyz
  1  'x, y, z'
loop_
 _atom_site_type_symbol
 _atom_site_label
 _atom_site_symmetry_multiplicity
 _atom_site_fract_x
 _atom_site_fract_y
 _atom_site_fract_z
 _atom_site_occupancy
  Na  Na0  1  0.59336417  0.58230290  0.15800447  1.0
  Na  Na1  1  0.94905406  0.12867697  0.22760185  1.0
  Na  Na2  1  0.39624596  0.02004008  0.06473764  1.0
  Na  Na3  1  0.35622773  0.50802319  0.81726874  1.0
  Cl  Cl4  1  0.00000000  0.74522903  0.00102060  1.0
  Cl  Cl5  1  0.50000000  0.16692878  0.84006541  1.0
  Cl  Cl6  1  0.00000000  0.66526982  0.44864508  1.0
  Cl  Cl7  1  0.50000000  0.75803232  0.64103039  1.0
