# generated using pymatgen
data_NaCl
_symmetry_space_group_name_H-M   'P 1'
_cell_length_a   3.78877401
_cell_length_b   3.27241465
_cell_length_c   25.55713738
_cell_angle_alpha   90.00000000
_cell_angle_beta   73.60893443
_cell_angle_gamma   90.00000000
_symmetry_Int_Tables_number   1
_chemical_formula_structural   NaCl
_chemical_formula_sum   'Na4 Cl4'
_cell_volume   303.99044573
_cell_formula_units_Z   4
loop_
 _symmetry_equiv_pos_site_id
 _symmetry_equiv_pos_as_xyz
  1  'x, y, z'
loop_
 _atom_site_type_symbol
 _atom_site_label
 _atom_site_symmetry_multiplicity
 _atom_site_fract_x
 _atom_site_fract_y
 _atom_site_fract_z
 _atom_site_occupancy
  Na  Na0  1  0.53921935  0.80980153  0.66047414  1.0
  Na  Na1  1  0.87727551  0.33154345  0.61362798  1.0
  Na  Na2  1  0.72506060  0.18199912  0.26990321  1.0
  Na  Na3  1  0.73845427  0.11303118  0.19815820  1.0
  Cl  Cl4  1  0.50252818  0.23728677  0.45070430  1.0
  Cl  Cl5  1  0.82614220  0.36634424  0.08861304  1.0
  Cl  Cl6  1  0.11814686  0.15837231  0.63600485  1.0
  Cl  Cl7  1  0.46333743  0.63753394  0.86940463  1.0
