# generated using pymatgen
data_NaCl
_symmetry_space_group_name_H-M   'P 1'
_cell_length_a   4.36060179
_cell_length_b   22.04153822
_cell_length_c   2.61685008
_cell_angle_alpha   90.00000000
_cell_angle_beta   90.00000000
_cell_angle_gamma   90.00000000
_symmetry_Int_Tables_number   1
_chemical_formula_structural   NaCl
_chemical_formula_sum   'Na4 Cl4'
_cell_volume   251.51689948
_cell_formula_units_Z   4
loop_
 _symmetry_equiv_pos_site_id
 _symmetry_equiv_pos_as_xyz
  1  'x, y, z'
loop_
 _atom_site_type_symbol
 _atom_site_label
 _atom_site_symmetry_multiplicity
 _atom_site_fract_x
 _atom_site_fract_y
 _atom_site_fract_z
 _atom_site_occupancy
  Na  Na0  1  0.52560384  0.62575074  0.20764192  1.0
  Na  Na1  1  0.80186727  0.41031096  0.51996881  1.0
  Na  Na2  1  0.39686885  0.91815093  0.75883482  1.0
  Na  Na3  1  0.52310613  0.31579255  0.81216096  1.0
  Cl  Cl4  1  0.00000000  0.68674598  0.75702374  1.0
  Cl  Cl5  1  0.50000000  0.13930625  0.65205838  1.0
  Cl  Cl6  1  0.00000000  0.70461022  0.47404777  1.0
  Cl  Cl7  1  0.50000000  0.74103561  0.61742666  1.0
