# generated using pymatgen
data_NaCl
_symmetry_space_group_name_H-M   'P 1'
_cell_length_a   5.67351953
_cell_length_b   4.79894065
_cell_length_c   8.12967336
_cell_angle_alpha   90.00000000
_cell_angle_beta   90.00000000
_cell_angle_gamma   90.00000000
_symmetry_Int_Tables_number   1
_chemical_formula_structural   NaCl
_chemical_formula_sum   'Na4 Cl4'
_cell_volume   221.34566947
_cell_formula_units_Z   4
loop_
 _symmetry_equiv_pos_site_id
 _symmetry_equiv_pos_as_xyz
  1  'x, y, z'
loop_
 _atom_site_type_symbol
 _atom_site_label
 _atom_site_symmetry_multiplicity
 _atom_site_fract_x
 _atom_site_fract_y
 _atom_site_fract_z
 _atom_site_occupancy
  Na  Na0  1  0.86713691  0.87861990  0.34895109  1.0
  Na  Na1  1  0.01617096  0.12528683  0.70369874  1.0
  Na  Na2  1  0.16767462  0.35789124  0.42901486  1.0
  Na  Na3  1  0.76812794  0.08378730  0.25000480  1.0
  Cl  Cl4  1  0.41259776  0.57618675  0.71932462  1.0
  Cl  Cl5  1  0.51272010  0.11075554  0.27234746  1.0
  Cl  Cl6  1  0.39469610  0.00759344  0.70021383  1.0
  Cl  Cl7  1  0.93342851  0.91147630  0.04993699  1.0
