# generated using pymatgen
data_NaCl
_symmetry_space_group_name_H-M   'P 1'
_cell_length_a   5.43871527
_cell_length_b   14.09514405
_cell_length_c   4.68991076
_cell_angle_alpha   90.00000000
_cell_angle_beta   23.93145907
_cell_angle_gamma   90.00000000
_symmetry_Int_Tables_number   1
_chemical_formula_structural   NaCl
_chemical_formula_sum   'Na4 Cl4'
_cell_volume   145.83942810
_cell_formula_units_Z   4
loop_
 _symmetry_equiv_pos_site_id
 _symmetry_equiv_pos_as_xyz
  1  'x, y, z'
loop_
 _atom_site_type_symbol
 _atom_site_label
 _atom_site_symmetry_multiplicity
 _atom_site_fract_x
 _atom_site_fract_y
 _atom_site_fract_z
 _atom_site_occupancy
  Na  Na0  1  0.00000000  0.00000000  0.00000000  1.0
  Na  Na1  1  0.00000000  0.00000000  0.50000000  1.0
  Na  Na2  1  0.50000000  0.96506437  0.25000000  1.0
  Na  Na3  1  0.50000000  0.45744681  0.75000000  1.0
  Cl  Cl4  1  0.58952660  0.62572483  0.73165133  1.0
  Cl  Cl5  1  0.80833386  0.83878937  0.92223943  1.0
  Cl  Cl6  1  0.14226484  0.27137644  0.41883119  1.0
  Cl  Cl7  1  0.54062994  0.55458520  0.58427529  1.0
