# generated using pymatgen
data_NaCl
_symmetry_space_group_name_H-M   'P 1'
_cell_length_a   6.81062595
_cell_length_b   13.81042884
_cell_length_c   3.37558318
_cell_angle_alpha   90.00000000
_cell_angle_beta   57.12714382
_cell_angle_gamma   90.00000000
_symmetry_Int_Tables_number   1
_chemical_formula_structural   NaCl
_chemical_formula_sum   'Na4 Cl4'
_cell_volume   266.66053542
_cell_formula_units_Z   4
loop_
 _symmetry_equiv_pos_site_id
 _symmetry_equiv_pos_as_xyz
  1  'x, y, z'
loop_
 _atom_site_type_symbol
 _atom_site_label
 _atom_site_symmetry_multiplicity
 _atom_site_fract_x
 _atom_site_fract_y
 _atom_site_fract_z
 _atom_site_occupancy
  Na  Na0  1  0.54923590  0.62283475  0.09364045  1.0
  Na  Na1  1  0.59697478  0.16435163  0.55109460  1.0
  Na  Na2  1  0.44505741  0.40860321  0.41072252  1.0
  Na  Na3  1  0.12585230  0.07440002  0.83883253  1.0
  Cl  Cl4  1  0.51528621  0.00000000  0.61897089  1.0
  Cl  Cl5  1  0.68960261  0.50000000  0.42672748  1.0
  Cl  Cl6  1  0.79236417  0.00000000  0.33267523  1.0
  Cl  Cl7  1  0.10703312  0.50000000  0.20177169  1.0
