# generated using pymatgen
data_NaCl
_symmetry_space_group_name_H-M   'P 1'
_cell_length_a   4.59320191
_cell_length_b   8.06052938
_cell_length_c   6.53950348
_cell_angle_alpha   90.00000000
_cell_angle_beta   74.87863478
_cell_angle_gamma   90.00000000
_symmetry_Int_Tables_number   1
_chemical_formula_structural   NaCl
_chemical_formula_sum   'Na4 Cl4'
_cell_volume   233.73304424
_cell_formula_units_Z   4
loop_
 _symmetry_equiv_pos_site_id
 _symmetry_equiv_pos_as_xyz
  1  'x, y, z'
loop_
 _atom_site_type_symbol
 _atom_site_label
 _atom_site_symmetry_multiplicity
 _atom_site_fract_x
 _atom_site_fract_y
 _atom_site_fract_z
 _atom_site_occupancy
  Na  Na0  1  0.90571008  0.86934990  0.53484645  1.0
  Na  Na1  1  0.89261369  0.14020934  0.61653113  1.0
  Na  Na2  1  0.91715105  0.65482020  0.19452716  1.0
  Na  Na3  1  0.61214066  0.72339060  0.27921971  1.0
  Cl  Cl4  1  0.22283131  0.54335470  0.65174143  1.0
  Cl  Cl5  1  0.72969550  0.03301432  0.95221951  1.0
  Cl  Cl6  1  0.15186514  0.62940443  0.86000702  1.0
  Cl  Cl7  1  0.37709454  0.55518488  0.89303941  1.0
