# generated using pymatgen
data_NaCl
_symmetry_space_group_name_H-M   'P 1'
_cell_length_a   4.89853991
_cell_length_b   4.89853991
_cell_length_c   13.70913959
_cell_angle_alpha   90.00000000
_cell_angle_beta   90.00000000
_cell_angle_gamma   90.00000000
_symmetry_Int_Tables_number   1
_chemical_formula_structural   NaCl
_chemical_formula_sum   'Na4 Cl4'
_cell_volume   328.96030832
_cell_formula_units_Z   4
loop_
 _symmetry_equiv_pos_site_id
 _symmetry_equiv_pos_as_xyz
  1  'x, y, z'
loop_
 _atom_site_type_symbol
 _atom_site_label
 _atom_site_symmetry_multiplicity
 _atom_site_fract_x
 _atom_site_fract_y
 _atom_site_fract_z
 _atom_site_occupancy
  Na  Na0  1  0.82040026  0.32040026  0.11580467  1.0
  Na  Na1  1  0.75523246  0.25523246  0.50863645  1.0
  Na  Na2  1  0.16983221  0.33016779  0.28085445  1.0
  Na  Na3  1  0.65703911  0.84296089  0.02898735  1.0
  Cl  Cl4  1  0.00000000  0.00000000  0.11502935  1.0
  Cl  Cl5  1  0.50000000  0.50000000  0.50260862  1.0
  Cl  Cl6  1  0.00000000  0.00000000  0.65932851  1.0
  Cl  Cl7  1  0.50000000  0.50000000  0.26316705  1.0
