# generated using pymatgen
data_NaCl
_symmetry_space_group_name_H-M   'P 1'
_cell_length_a   7.17956483
_cell_length_b   7.17956483
_cell_length_c   7.17956483
_cell_angle_alpha   90.00000000
_cell_angle_beta   90.00000000
_cell_angle_gamma   90.00000000
_symmetry_Int_Tables_number   1
_chemical_formula_structural   NaCl
_chemical_formula_sum   'Na4 Cl4'
_cell_volume   370.07893391
_cell_formula_units_Z   4
loop_
 _symmetry_equiv_pos_site_id
 _symmetry_equiv_pos_as_xyz
  1  'x, y, z'
loop_
 _atom_site_type_symbol
 _atom_site_label
 _atom_site_symmetry_multiplicity
 _atom_site_fract_x
 _atom_site_fract_y
 _atom_site_fract_z
 _atom_site_occupancy
  Na  Na0  1  0.97204547  0.97204547  0.97204547  1.0
  Na  Na1  1  0.12414986  0.62414986  0.87585014  1.0
  Na  Na2  1  0.50934140  0.99065860  0.00934140  1.0
  Na  Na3  1  0.17570990  0.82429010  0.32429010  1.0
  Cl  Cl4  1  0.55969867  0.55969867  0.55969867  1.0
  Cl  Cl5  1  0.24957844  0.74957844  0.75042156  1.0
  Cl  Cl6  1  0.19799956  0.30200044  0.69799956  1.0
  Cl  Cl7  1  0.92157511  0.07842489  0.57842489  1.0
