# generated using pymatgen
data_NaCl
_symmetry_space_group_name_H-M   'P 1'
_cell_length_a   4.51337194
_cell_length_b   4.51337194
_cell_length_c   18.32197497
_cell_angle_alpha   90.00000000
_cell_angle_beta   90.00000000
_cell_angle_gamma   90.00000000
_symmetry_Int_Tables_number   1
_chemical_formula_structural   NaCl
_chemical_formula_sum   'Na4 Cl4'
_cell_volume   373.22827242
_cell_formula_units_Z   4
loop_
 _symmetry_equiv_pos_site_id
 _symmetry_equiv_pos_as_xyz
  1  'x, y, z'
loop_
 _atom_site_type_symbol
 _atom_site_label
 _atom_site_symmetry_multiplicity
 _atom_site_fract_x
 _atom_site_fract_y
 _atom_site_fract_z
 _atom_site_occupancy
  Na  Na0  1  0.25622180  0.70680422  0.50944689  1.0
  Na  Na1  1  0.02343482  0.28230611  0.39899445  1.0
  Na  Na2  1  0.38819941  0.55004029  0.82386007  1.0
  Na  Na3  1  0.16030951  0.54203902  0.44078613  1.0
  Cl  Cl4  1  0.75677732  0.94014742  0.81661256  1.0
  Cl  Cl5  1  0.84831450  0.79034216  0.42048384  1.0
  Cl  Cl6  1  0.76417425  0.23953062  0.10378647  1.0
  Cl  Cl7  1  0.79055779  0.52895940  0.16598343  1.0
