# generated using pymatgen
data_NaCl
_symmetry_space_group_name_H-M   'P 1'
_cell_length_a   9.54316817
_cell_length_b   11.66043449
_cell_length_c   3.52865223
_cell_angle_alpha   90.00000000
_cell_angle_beta   90.00000000
_cell_angle_gamma   90.00000000
_symmetry_Int_Tables_number   1
_chemical_formula_structural   NaCl
_chemical_formula_sum   'Na4 Cl4'
_cell_volume   392.65955362
_cell_formula_units_Z   4
loop_
 _symmetry_equiv_pos_site_id
 _symmetry_equiv_pos_as_xyz
  1  'x, y, z'
loop_
 _atom_site_type_symbol
 _atom_site_label
 _atom_site_symmetry_multiplicity
 _atom_site_fract_x
 _atom_site_fract_y
 _atom_site_fract_z
 _atom_site_occupancy
  Na  Na0  1  0.16440329  0.75515993  0.00024318  1.0
  Na  Na1  1  0.21318936  0.00024739  0.71646087  1.0
  Na  Na2  1  0.61710783  0.96833601  0.43238238  1.0
  Na  Na3  1  0.69009229  0.50137867  0.78817639  1.0
  Cl  Cl4  1  0.90821341  0.83782436  0.62160591  1.0
  Cl  Cl5  1  0.57704377  0.61343326  0.26700843  1.0
  Cl  Cl6  1  0.84309777  0.00984481  0.93908768  1.0
  Cl  Cl7  1  0.66941175  0.26763275  0.01833566  1.0
