# generated using pymatgen
data_NaCl
_symmetry_space_group_name_H-M   'P 1'
_cell_length_a   7.35008970
_cell_length_b   7.35008970
_cell_length_c   7.35008970
_cell_angle_alpha   90.00000000
_cell_angle_beta   90.00000000
_cell_angle_gamma   90.00000000
_symmetry_Int_Tables_number   1
_chemical_formula_structural   NaCl
_chemical_formula_sum   'Na4 Cl4'
_cell_volume   397.07991263
_cell_formula_units_Z   4
loop_
 _symmetry_equiv_pos_site_id
 _symmetry_equiv_pos_as_xyz
  1  'x, y, z'
loop_
 _atom_site_type_symbol
 _atom_site_label
 _atom_site_symmetry_multiplicity
 _atom_site_fract_x
 _atom_site_fract_y
 _atom_site_fract_z
 _atom_site_occupancy
  Na  Na0  1  0.47692728  0.47692728  0.47692728  1.0
  Na  Na1  1  0.53339627  0.03339627  0.46660373  1.0
  Na  Na2  1  0.35578671  0.14421329  0.85578671  1.0
  Na  Na3  1  0.24084440  0.75915560  0.25915560  1.0
  Cl  Cl4  1  0.84209557  0.84209557  0.84209557  1.0
  Cl  Cl5  1  0.96440358  0.46440358  0.03559642  1.0
  Cl  Cl6  1  0.47150797  0.02849203  0.97150797  1.0
  Cl  Cl7  1  0.40520007  0.59479993  0.09479993  1.0
