# generated using pymatgen
data_NaCl
_symmetry_space_group_name_H-M   'P 1'
_cell_length_a   4.86560863
_cell_length_b   4.86560863
_cell_length_c   4.86560863
_cell_angle_alpha   90.00000000
_cell_angle_beta   90.00000000
_cell_angle_gamma   90.00000000
_symmetry_Int_Tables_number   1
_chemical_formula_structural   NaCl
_chemical_formula_sum   'Na4 Cl4'
_cell_volume   115.18913561
_cell_formula_units_Z   4
loop_
 _symmetry_equiv_pos_site_id
 _symmetry_equiv_pos_as_xyz
  1  'x, y, z'
loop_
 _atom_site_type_symbol
 _atom_site_label
 _atom_site_symmetry_multiplicity
 _atom_site_fract_x
 _atom_site_fract_y
 _atom_site_fract_z
 _atom_site_occupancy
  Na  Na0  1  0.37003542  0.37003542  0.37003542  1.0
  Na  Na1  1  0.60421249  0.10421249  0.39578751  1.0
  Na  Na2  1  0.34116549  0.15883451  0.84116549  1.0
  Na  Na3  1  0.13627107  0.86372893  0.36372893  1.0
  Cl  Cl4  1  0.86499691  0.86499691  0.86499691  1.0
  Cl  Cl5  1  0.39198098  0.89198098  0.60801902  1.0
  Cl  Cl6  1  0.58725885  0.91274115  0.08725885  1.0
  Cl  Cl7  1  0.48657764  0.51342236  0.01342236  1.0
