# generated using pymatgen
data_NaCl
_symmetry_space_group_name_H-M   'P 1'
_cell_length_a   5.48992842
_cell_length_b   7.12988033
_cell_length_c   4.42942697
_cell_angle_alpha   90.00000000
_cell_angle_beta   90.00000000
_cell_angle_gamma   90.00000000
_symmetry_Int_Tables_number   1
_chemical_formula_structural   NaCl
_chemical_formula_sum   'Na4 Cl4'
_cell_volume   173.37898982
_cell_formula_units_Z   4
loop_
 _symmetry_equiv_pos_site_id
 _symmetry_equiv_pos_as_xyz
  1  'x, y, z'
loop_
 _atom_site_type_symbol
 _atom_site_label
 _atom_site_symmetry_multiplicity
 _atom_site_fract_x
 _atom_site_fract_y
 _atom_site_fract_z
 _atom_site_occupancy
  Na  Na0  1  0.05017319  0.69954293  0.23300642  1.0
  Na  Na1  1  0.08801533  0.12215595  0.60243132  1.0
  Na  Na2  1  0.56279338  0.56232850  0.16594123  1.0
  Na  Na3  1  0.62684975  0.16628883  0.90962152  1.0
  Cl  Cl4  1  0.91084261  0.93041661  0.69901720  1.0
  Cl  Cl5  1  0.56730403  0.73664968  0.33482848  1.0
  Cl  Cl6  1  0.53593101  0.41530844  0.87507898  1.0
  Cl  Cl7  1  0.67867706  0.99433519  0.95714798  1.0
