# generated using pymatgen
data_NaCl
_symmetry_space_group_name_H-M   'P 1'
_cell_length_a   4.80492093
_cell_length_b   12.22087755
_cell_length_c   3.85611123
_cell_angle_alpha   90.00000000
_cell_angle_beta   90.00000000
_cell_angle_gamma   90.00000000
_symmetry_Int_Tables_number   1
_chemical_formula_structural   NaCl
_chemical_formula_sum   'Na4 Cl4'
_cell_volume   226.43220231
_cell_formula_units_Z   4
loop_
 _symmetry_equiv_pos_site_id
 _symmetry_equiv_pos_as_xyz
  1  'x, y, z'
loop_
 _atom_site_type_symbol
 _atom_site_label
 _atom_site_symmetry_multiplicity
 _atom_site_fract_x
 _atom_site_fract_y
 _atom_site_fract_z
 _atom_site_occupancy
  Na  Na0  1  0.00000000  0.00000000  0.07785969  1.0
  Na  Na1  1  0.50000000  0.50000000  0.29964891  1.0
  Na  Na2  1  0.00000000  0.50000000  0.22038686  1.0
  Na  Na3  1  0.50000000  0.00000000  0.82443456  1.0
  Cl  Cl4  1  0.00000000  0.94887369  0.75004804  1.0
  Cl  Cl5  1  0.00000000  0.64435859  0.61439816  1.0
  Cl  Cl6  1  0.50000000  0.96237714  0.43791079  1.0
  Cl  Cl7  1  0.50000000  0.84471983  0.03418764  1.0
