# generated using pymatgen
data_NaCl
_symmetry_space_group_name_H-M   'P 1'
_cell_length_a   6.60721038
_cell_length_b   6.60721038
_cell_length_c   6.60721038
_cell_angle_alpha   90.00000000
_cell_angle_beta   90.00000000
_cell_angle_gamma   90.00000000
_symmetry_Int_Tables_number   1
_chemical_formula_structural   NaCl
_chemical_formula_sum   'Na4 Cl4'
_cell_volume   288.43928223
_cell_formula_units_Z   4
loop_
 _symmetry_equiv_pos_site_id
 _symmetry_equiv_pos_as_xyz
  1  'x, y, z'
loop_
 _atom_site_type_symbol
 _atom_site_label
 _atom_site_symmetry_multiplicity
 _atom_site_fract_x
 _atom_site_fract_y
 _atom_site_fract_z
 _atom_site_occupancy
  Na  Na0  1  0.33509641  0.33509641  0.33509641  1.0
  Na  Na1  1  0.51650509  0.01650509  0.48349491  1.0
  Na  Na2  1  0.36323361  0.13676639  0.86323361  1.0
  Na  Na3  1  0.17959657  0.82040343  0.32040343  1.0
  Cl  Cl4  1  0.82567589  0.82567589  0.82567589  1.0
  Cl  Cl5  1  0.88477772  0.38477772  0.11522228  1.0
  Cl  Cl6  1  0.51873887  0.98126113  0.01873887  1.0
  Cl  Cl7  1  0.47732701  0.52267299  0.02267299  1.0
