# generated using pymatgen
data_NaCl
_symmetry_space_group_name_H-M   'P 1'
_cell_length_a   8.02867840
_cell_length_b   8.02867840
_cell_length_c   6.31779488
_cell_angle_alpha   90.00000000
_cell_angle_beta   90.00000000
_cell_angle_gamma   90.00000000
_symmetry_Int_Tables_number   1
_chemical_formula_structural   NaCl
_chemical_formula_sum   'Na4 Cl4'
_cell_volume   407.24301637
_cell_formula_units_Z   4
loop_
 _symmetry_equiv_pos_site_id
 _symmetry_equiv_pos_as_xyz
  1  'x, y, z'
loop_
 _atom_site_type_symbol
 _atom_site_label
 _atom_site_symmetry_multiplicity
 _atom_site_fract_x
 _atom_site_fract_y
 _atom_site_fract_z
 _atom_site_occupancy
  Na  Na0  1  0.46394086  0.86084710  0.27109280  1.0
  Na  Na1  1  0.32049905  0.05500405  0.80777969  1.0
  Na  Na2  1  0.96633363  0.23909846  0.60823518  1.0
  Na  Na3  1  0.06999236  0.44996093  0.02623322  1.0
  Cl  Cl4  1  0.69087230  0.28046741  0.52107847  1.0
  Cl  Cl5  1  0.98485567  0.48199241  0.35390929  1.0
  Cl  Cl6  1  0.36664838  0.42012988  0.20142220  1.0
  Cl  Cl7  1  0.52924183  0.03516929  0.40802706  1.0
