# generated using pymatgen
data_NaCl
_symmetry_space_group_name_H-M   'P 1'
_cell_length_a   6.38031365
_cell_length_b   6.38031365
_cell_length_c   6.38031365
_cell_angle_alpha   90.00000000
_cell_angle_beta   90.00000000
_cell_angle_gamma   90.00000000
_symmetry_Int_Tables_number   1
_chemical_formula_structural   NaCl
_chemical_formula_sum   'Na4 Cl4'
_cell_volume   259.73237469
_cell_formula_units_Z   4
loop_
 _symmetry_equiv_pos_site_id
 _symmetry_equiv_pos_as_xyz
  1  'x, y, z'
loop_
 _atom_site_type_symbol
 _atom_site_label
 _atom_site_symmetry_multiplicity
 _atom_site_fract_x
 _atom_site_fract_y
 _atom_site_fract_z
 _atom_site_occupancy
  Na  Na0  1  0.26046121  0.26046121  0.26046121  1.0
  Na  Na1  1  0.53604234  0.03604234  0.46395766  1.0
  Na  Na2  1  0.71926760  0.78073240  0.21926760  1.0
  Na  Na3  1  0.85635421  0.14364579  0.64364579  1.0
  Cl  Cl4  1  0.69140159  0.69140159  0.69140159  1.0
  Cl  Cl5  1  0.42205753  0.92205753  0.57794247  1.0
  Cl  Cl6  1  0.94102197  0.55897803  0.44102197  1.0
  Cl  Cl7  1  0.47936157  0.52063843  0.02063843  1.0
