# generated using pymatgen
data_NaCl
_symmetry_space_group_name_H-M   'P 1'
_cell_length_a   5.63414320
_cell_length_b   5.63414320
_cell_length_c   5.63414320
_cell_angle_alpha   90.00000000
_cell_angle_beta   90.00000000
_cell_angle_gamma   90.00000000
_symmetry_Int_Tables_number   1
_chemical_formula_structural   NaCl
_chemical_formula_sum   'Na4 Cl4'
_cell_volume   178.84781679
_cell_formula_units_Z   4
loop_
 _symmetry_equiv_pos_site_id
 _symmetry_equiv_pos_as_xyz
  1  'x, y, z'
loop_
 _atom_site_type_symbol
 _atom_site_label
 _atom_site_symmetry_multiplicity
 _atom_site_fract_x
 _atom_site_fract_y
 _atom_site_fract_z
 _atom_site_occupancy
  Na  Na0  1  0.42326037  0.42326037  0.42326037  1.0
  Na  Na1  1  0.71634793  0.21634793  0.28365207  1.0
  Na  Na2  1  0.80194385  0.69805615  0.30194385  1.0
  Na  Na3  1  0.82267193  0.17732807  0.67732807  1.0
  Cl  Cl4  1  0.76171253  0.76171253  0.76171253  1.0
  Cl  Cl5  1  0.95047780  0.45047780  0.04952220  1.0
  Cl  Cl6  1  0.99915110  0.50084890  0.49915110  1.0
  Cl  Cl7  1  0.31185191  0.68814809  0.18814809  1.0
