# generated using pymatgen
data_NaCl
_symmetry_space_group_name_H-M   'P 1'
_cell_length_a   7.67654554
_cell_length_b   3.81083531
_cell_length_c   16.51868287
_cell_angle_alpha   90.00000000
_cell_angle_beta   23.84259766
_cell_angle_gamma   90.00000000
_symmetry_Int_Tables_number   1
_chemical_formula_structural   NaCl
_chemical_formula_sum   'Na4 Cl4'
_cell_volume   195.33724479
_cell_formula_units_Z   4
loop_
 _symmetry_equiv_pos_site_id
 _symmetry_equiv_pos_as_xyz
  1  'x, y, z'
loop_
 _atom_site_type_symbol
 _atom_site_label
 _atom_site_symmetry_multiplicity
 _atom_site_fract_x
 _atom_site_fract_y
 _atom_site_fract_z
 _atom_site_occupancy
  Na  Na0  1  0.38635484  0.84411780  0.39460344  1.0
  Na  Na1  1  0.89292150  0.65724443  0.94085136  1.0
  Na  Na2  1  0.97345866  0.80381434  0.28822178  1.0
  Na  Na3  1  0.03661333  0.33315960  0.77624967  1.0
  Cl  Cl4  1  0.99972135  0.99861750  0.49562662  1.0
  Cl  Cl5  1  0.65926889  0.41586240  0.06511623  1.0
  Cl  Cl6  1  0.81761489  0.88073202  0.80607049  1.0
  Cl  Cl7  1  0.39394894  0.86129913  0.97039843  1.0
