# generated using pymatgen
data_NaCl
_symmetry_space_group_name_H-M   'P 1'
_cell_length_a   4.79426748
_cell_length_b   4.79426748
_cell_length_c   15.52702996
_cell_angle_alpha   90.00000000
_cell_angle_beta   90.00000000
_cell_angle_gamma   90.00000000
_symmetry_Int_Tables_number   1
_chemical_formula_structural   NaCl
_chemical_formula_sum   'Na4 Cl4'
_cell_volume   356.88879403
_cell_formula_units_Z   4
loop_
 _symmetry_equiv_pos_site_id
 _symmetry_equiv_pos_as_xyz
  1  'x, y, z'
loop_
 _atom_site_type_symbol
 _atom_site_label
 _atom_site_symmetry_multiplicity
 _atom_site_fract_x
 _atom_site_fract_y
 _atom_site_fract_z
 _atom_site_occupancy
  Na  Na0  1  0.99964325  0.16795964  0.19064881  1.0
  Na  Na1  1  0.18705252  0.47898262  0.96701954  1.0
  Na  Na2  1  0.90716342  0.21579334  0.45463988  1.0
  Na  Na3  1  0.52249655  0.55985169  0.85958349  1.0
  Cl  Cl4  1  0.29550550  0.15699849  0.33812455  1.0
  Cl  Cl5  1  0.76254289  0.37510232  0.92232648  1.0
  Cl  Cl6  1  0.98311958  0.55917643  0.72925122  1.0
  Cl  Cl7  1  0.12139645  0.13019265  0.01126293  1.0
