# generated using pymatgen
data_NaCl
_symmetry_space_group_name_H-M   'P 1'
_cell_length_a   4.09886968
_cell_length_b   12.76785957
_cell_length_c   20.84433036
_cell_angle_alpha   90.00000000
_cell_angle_beta   20.00880711
_cell_angle_gamma   90.00000000
_symmetry_Int_Tables_number   1
_chemical_formula_structural   NaCl
_chemical_formula_sum   'Na4 Cl4'
_cell_volume   373.25463460
_cell_formula_units_Z   4
loop_
 _symmetry_equiv_pos_site_id
 _symmetry_equiv_pos_as_xyz
  1  'x, y, z'
loop_
 _atom_site_type_symbol
 _atom_site_label
 _atom_site_symmetry_multiplicity
 _atom_site_fract_x
 _atom_site_fract_y
 _atom_site_fract_z
 _atom_site_occupancy
  Na  Na0  1  0.41763173  0.00000000  0.34704096  1.0
  Na  Na1  1  0.35681126  0.50000000  0.98230341  1.0
  Na  Na2  1  0.59931597  0.00000000  0.67099798  1.0
  Na  Na3  1  0.13050770  0.50000000  0.17741141  1.0
  Cl  Cl4  1  0.80531287  0.77502321  0.51989024  1.0
  Cl  Cl5  1  0.11521885  0.65109650  0.77868442  1.0
  Cl  Cl6  1  0.86401743  0.89436086  0.92434928  1.0
  Cl  Cl7  1  0.39760211  0.69477646  0.21104340  1.0
