# generated using pymatgen
data_NaCl
_symmetry_space_group_name_H-M   'P 1'
_cell_length_a   4.42799409
_cell_length_b   2.52521647
_cell_length_c   20.34726335
_cell_angle_alpha   90.00000000
_cell_angle_beta   90.00000000
_cell_angle_gamma   90.00000000
_symmetry_Int_Tables_number   1
_chemical_formula_structural   NaCl
_chemical_formula_sum   'Na4 Cl4'
_cell_volume   227.51584712
_cell_formula_units_Z   4
loop_
 _symmetry_equiv_pos_site_id
 _symmetry_equiv_pos_as_xyz
  1  'x, y, z'
loop_
 _atom_site_type_symbol
 _atom_site_label
 _atom_site_symmetry_multiplicity
 _atom_site_fract_x
 _atom_site_fract_y
 _atom_site_fract_z
 _atom_site_occupancy
  Na  Na0  1  0.44425996  0.74911301  0.21773151  1.0
  Na  Na1  1  0.69267269  0.11338138  0.42774198  1.0
  Na  Na2  1  0.19352280  0.95784112  0.96139836  1.0
  Na  Na3  1  0.09640718  0.46474575  0.72841688  1.0
  Cl  Cl4  1  0.83330582  0.74677050  0.50351522  1.0
  Cl  Cl5  1  0.43827265  0.49107855  0.46097664  1.0
  Cl  Cl6  1  0.91811073  0.37043283  0.58955042  1.0
  Cl  Cl7  1  0.31419131  0.77955473  0.39294053  1.0
