# generated using pymatgen
data_NaCl
_symmetry_space_group_name_H-M   'P 1'
_cell_length_a   5.08954803
_cell_length_b   5.08954803
_cell_length_c   11.67457085
_cell_angle_alpha   90.00000000
_cell_angle_beta   90.00000000
_cell_angle_gamma   90.00000000
_symmetry_Int_Tables_number   1
_chemical_formula_structural   NaCl
_chemical_formula_sum   'Na4 Cl4'
_cell_volume   302.41223609
_cell_formula_units_Z   4
loop_
 _symmetry_equiv_pos_site_id
 _symmetry_equiv_pos_as_xyz
  1  'x, y, z'
loop_
 _atom_site_type_symbol
 _atom_site_label
 _atom_site_symmetry_multiplicity
 _atom_site_fract_x
 _atom_site_fract_y
 _atom_site_fract_z
 _atom_site_occupancy
  Na  Na0  1  0.84098879  0.37343019  0.53733363  1.0
  Na  Na1  1  0.90248558  0.47791567  0.13937277  1.0
  Na  Na2  1  0.24235149  0.30562459  0.33957375  1.0
  Na  Na3  1  0.37575135  0.64278259  0.25074063  1.0
  Cl  Cl4  1  0.32158542  0.34446272  0.18247295  1.0
  Cl  Cl5  1  0.91237509  0.39122526  0.96794780  1.0
  Cl  Cl6  1  0.81565673  0.90436339  0.49996763  1.0
  Cl  Cl7  1  0.23788436  0.23555429  0.65058820  1.0
