# generated using pymatgen
data_NaCl
_symmetry_space_group_name_H-M   'P 1'
_cell_length_a   3.36304695
_cell_length_b   3.97821149
_cell_length_c   20.43614990
_cell_angle_alpha   90.00000000
_cell_angle_beta   90.00000000
_cell_angle_gamma   90.00000000
_symmetry_Int_Tables_number   1
_chemical_formula_structural   NaCl
_chemical_formula_sum   'Na4 Cl4'
_cell_volume   273.41345150
_cell_formula_units_Z   4
loop_
 _symmetry_equiv_pos_site_id
 _symmetry_equiv_pos_as_xyz
  1  'x, y, z'
loop_
 _atom_site_type_symbol
 _atom_site_label
 _atom_site_symmetry_multiplicity
 _atom_site_fract_x
 _atom_site_fract_y
 _atom_site_fract_z
 _atom_site_occupancy
  Na  Na0  1  0.32870277  0.09259049  0.99896385  1.0
  Na  Na1  1  0.47017245  0.78164007  0.15971138  1.0
  Na  Na2  1  0.46286125  0.83576023  0.44797940  1.0
  Na  Na3  1  0.55016646  0.68567042  0.38813870  1.0
  Cl  Cl4  1  0.73166606  0.64441503  0.77020411  1.0
  Cl  Cl5  1  0.38887415  0.54223348  0.49980936  1.0
  Cl  Cl6  1  0.41935012  0.97778356  0.69103088  1.0
  Cl  Cl7  1  0.99564496  0.24070443  0.87233508  1.0
