# generated using pymatgen
data_NaCl
_symmetry_space_group_name_H-M   'P 1'
_cell_length_a   2.86953013
_cell_length_b   17.35004401
_cell_length_c   6.20264575
_cell_angle_alpha   90.00000000
_cell_angle_beta   90.00000000
_cell_angle_gamma   90.00000000
_symmetry_Int_Tables_number   1
_chemical_formula_structural   NaCl
_chemical_formula_sum   'Na4 Cl4'
_cell_volume   308.80786163
_cell_formula_units_Z   4
loop_
 _symmetry_equiv_pos_site_id
 _symmetry_equiv_pos_as_xyz
  1  'x, y, z'
loop_
 _atom_site_type_symbol
 _atom_site_label
 _atom_site_symmetry_multiplicity
 _atom_site_fract_x
 _atom_site_fract_y
 _atom_site_fract_z
 _atom_site_occupancy
  Na  Na0  1  0.00000000  0.23336803  0.84125027  1.0
  Na  Na1  1  0.00000000  0.13011824  0.31539234  1.0
  Na  Na2  1  0.00000000  0.82200684  0.09823953  1.0
  Na  Na3  1  0.00000000  0.43110496  0.94377281  1.0
  Cl  Cl4  1  0.50000000  0.00000000  0.69069472  1.0
  Cl  Cl5  1  0.50000000  0.50000000  0.21397278  1.0
  Cl  Cl6  1  0.50000000  0.00000000  0.99965522  1.0
  Cl  Cl7  1  0.50000000  0.50000000  0.98338377  1.0
