# generated using pymatgen
data_NaCl
_symmetry_space_group_name_H-M   'P 1'
_cell_length_a   4.36913916
_cell_length_b   4.36913916
_cell_length_c   19.79034630
_cell_angle_alpha   90.00000000
_cell_angle_beta   90.00000000
_cell_angle_gamma   90.00000000
_symmetry_Int_Tables_number   1
_chemical_formula_structural   NaCl
_chemical_formula_sum   'Na4 Cl4'
_cell_volume   377.78538147
_cell_formula_units_Z   4
loop_
 _symmetry_equiv_pos_site_id
 _symmetry_equiv_pos_as_xyz
  1  'x, y, z'
loop_
 _atom_site_type_symbol
 _atom_site_label
 _atom_site_symmetry_multiplicity
 _atom_site_fract_x
 _atom_site_fract_y
 _atom_site_fract_z
 _atom_site_occupancy
  Na  Na0  1  0.89874423  0.54492786  0.91668710  1.0
  Na  Na1  1  0.30164333  0.81791816  0.05529100  1.0
  Na  Na2  1  0.90728548  0.99798392  0.43444270  1.0
  Na  Na3  1  0.85602982  0.09296175  0.04819795  1.0
  Cl  Cl4  1  0.71940699  0.14241894  0.90933180  1.0
  Cl  Cl5  1  0.84648924  0.16466426  0.35008081  1.0
  Cl  Cl6  1  0.71668347  0.99989510  0.47359719  1.0
  Cl  Cl7  1  0.15924295  0.77901382  0.69301999  1.0
