# generated using pymatgen
data_NaCl
_symmetry_space_group_name_H-M   'P 1'
_cell_length_a   4.88092859
_cell_length_b   5.95477981
_cell_length_c   8.85793703
_cell_angle_alpha   90.00000000
_cell_angle_beta   117.25902581
_cell_angle_gamma   90.00000000
_symmetry_Int_Tables_number   1
_chemical_formula_structural   NaCl
_chemical_formula_sum   'Na4 Cl4'
_cell_volume   228.86302919
_cell_formula_units_Z   4
loop_
 _symmetry_equiv_pos_site_id
 _symmetry_equiv_pos_as_xyz
  1  'x, y, z'
loop_
 _atom_site_type_symbol
 _atom_site_label
 _atom_site_symmetry_multiplicity
 _atom_site_fract_x
 _atom_site_fract_y
 _atom_site_fract_z
 _atom_site_occupancy
  Na  Na0  1  0.72046869  0.34367897  0.55420997  1.0
  Na  Na1  1  0.52170798  0.90736073  0.06112612  1.0
  Na  Na2  1  0.94459435  0.45884927  0.83785366  1.0
  Na  Na3  1  0.88408982  0.30482904  0.32660159  1.0
  Cl  Cl4  1  0.40621406  0.28587644  0.92317537  1.0
  Cl  Cl5  1  0.09214972  0.02250480  0.41587874  1.0
  Cl  Cl6  1  0.42148936  0.40123237  0.73710137  1.0
  Cl  Cl7  1  0.16582829  0.88265657  0.08629674  1.0
