# generated using pymatgen
data_NaCl
_symmetry_space_group_name_H-M   'P 1'
_cell_length_a   2.93184312
_cell_length_b   2.93184312
_cell_length_c   9.82955718
_cell_angle_alpha   90.00000000
_cell_angle_beta   90.00000000
_cell_angle_gamma   90.00000000
_symmetry_Int_Tables_number   1
_chemical_formula_structural   NaCl
_chemical_formula_sum   'Na4 Cl4'
_cell_volume   84.49196476
_cell_formula_units_Z   4
loop_
 _symmetry_equiv_pos_site_id
 _symmetry_equiv_pos_as_xyz
  1  'x, y, z'
loop_
 _atom_site_type_symbol
 _atom_site_label
 _atom_site_symmetry_multiplicity
 _atom_site_fract_x
 _atom_site_fract_y
 _atom_site_fract_z
 _atom_site_occupancy
  Na  Na0  1  0.86186690  0.54720967  0.52329734  1.0
  Na  Na1  1  0.24062432  0.95445375  0.00996263  1.0
  Na  Na2  1  0.42214112  0.98125191  0.59128203  1.0
  Na  Na3  1  0.86962229  0.01681085  0.74966607  1.0
  Cl  Cl4  1  0.54398128  0.59108998  0.83426422  1.0
  Cl  Cl5  1  0.95525489  0.11766466  0.39031251  1.0
  Cl  Cl6  1  0.82983106  0.91211199  0.94067103  1.0
  Cl  Cl7  1  0.16208303  0.94576194  0.22515787  1.0
