# generated using pymatgen
data_NaCl
_symmetry_space_group_name_H-M   'P 1'
_cell_length_a   2.58072958
_cell_length_b   6.18737056
_cell_length_c   10.14851403
_cell_angle_alpha   90.00000000
_cell_angle_beta   90.73603314
_cell_angle_gamma   90.00000000
_symmetry_Int_Tables_number   1
_chemical_formula_structural   NaCl
_chemical_formula_sum   'Na4 Cl4'
_cell_volume   162.03739291
_cell_formula_units_Z   4
loop_
 _symmetry_equiv_pos_site_id
 _symmetry_equiv_pos_as_xyz
  1  'x, y, z'
loop_
 _atom_site_type_symbol
 _atom_site_label
 _atom_site_symmetry_multiplicity
 _atom_site_fract_x
 _atom_site_fract_y
 _atom_site_fract_z
 _atom_site_occupancy
  Na  Na0  1  0.39651857  0.44773627  0.77401165  1.0
  Na  Na1  1  0.66431813  0.84462453  0.18100938  1.0
  Na  Na2  1  0.43671304  0.78101538  0.53516866  1.0
  Na  Na3  1  0.90353991  0.78708741  0.44885718  1.0
  Cl  Cl4  1  0.35615207  0.20786736  0.89250874  1.0
  Cl  Cl5  1  0.33567219  0.47667062  0.27411486  1.0
  Cl  Cl6  1  0.38549080  0.95290738  0.27927006  1.0
  Cl  Cl7  1  0.93414003  0.41295709  0.00950541  1.0
