# generated using pymatgen
data_NaCl
_symmetry_space_group_name_H-M   'P 1'
_cell_length_a   8.51728137
_cell_length_b   6.04012423
_cell_length_c   7.15665441
_cell_angle_alpha   90.00000000
_cell_angle_beta   90.00000000
_cell_angle_gamma   90.00000000
_symmetry_Int_Tables_number   1
_chemical_formula_structural   NaCl
_chemical_formula_sum   'Na4 Cl4'
_cell_volume   368.17721771
_cell_formula_units_Z   4
loop_
 _symmetry_equiv_pos_site_id
 _symmetry_equiv_pos_as_xyz
  1  'x, y, z'
loop_
 _atom_site_type_symbol
 _atom_site_label
 _atom_site_symmetry_multiplicity
 _atom_site_fract_x
 _atom_site_fract_y
 _atom_site_fract_z
 _atom_site_occupancy
  Na  Na0  1  0.00000000  0.50000000  0.74374059  1.0
  Na  Na1  1  0.50000000  0.50000000  0.19779427  1.0
  Na  Na2  1  0.25000000  0.69069196  0.45660067  1.0
  Na  Na3  1  0.75000000  0.94109759  0.67063723  1.0
  Cl  Cl4  1  0.36297804  0.10370732  0.71203361  1.0
  Cl  Cl5  1  0.19380396  0.04655800  0.62375358  1.0
  Cl  Cl6  1  0.49699970  0.76313445  0.89921265  1.0
  Cl  Cl7  1  0.30874938  0.35857695  0.38132248  1.0
