# generated using pymatgen
data_NaCl
_symmetry_space_group_name_H-M   'P 1'
_cell_length_a   6.94759847
_cell_length_b   6.94759847
_cell_length_c   8.01934883
_cell_angle_alpha   90.00000000
_cell_angle_beta   90.00000000
_cell_angle_gamma   90.00000000
_symmetry_Int_Tables_number   1
_chemical_formula_structural   NaCl
_chemical_formula_sum   'Na4 Cl4'
_cell_volume   387.08694709
_cell_formula_units_Z   4
loop_
 _symmetry_equiv_pos_site_id
 _symmetry_equiv_pos_as_xyz
  1  'x, y, z'
loop_
 _atom_site_type_symbol
 _atom_site_label
 _atom_site_symmetry_multiplicity
 _atom_site_fract_x
 _atom_site_fract_y
 _atom_site_fract_z
 _atom_site_occupancy
  Na  Na0  1  0.56649913  0.60213844  0.77471258  1.0
  Na  Na1  1  0.57484880  0.96138915  0.03423258  1.0
  Na  Na2  1  0.78137910  0.86981916  0.10928163  1.0
  Na  Na3  1  0.99834332  0.52430650  0.55461053  1.0
  Cl  Cl4  1  0.36946948  0.23431578  0.82375526  1.0
  Cl  Cl5  1  0.67463155  0.90925888  0.46808054  1.0
  Cl  Cl6  1  0.39970876  0.52668983  0.15057968  1.0
  Cl  Cl7  1  0.11243869  0.73731303  0.23590192  1.0
