# generated using pymatgen
data_NaCl
_symmetry_space_group_name_H-M   'P 1'
_cell_length_a   2.59622600
_cell_length_b   14.36406852
_cell_length_c   6.89878815
_cell_angle_alpha   90.00000000
_cell_angle_beta   90.00000000
_cell_angle_gamma   90.00000000
_symmetry_Int_Tables_number   1
_chemical_formula_structural   NaCl
_chemical_formula_sum   'Na4 Cl4'
_cell_volume   257.27214753
_cell_formula_units_Z   4
loop_
 _symmetry_equiv_pos_site_id
 _symmetry_equiv_pos_as_xyz
  1  'x, y, z'
loop_
 _atom_site_type_symbol
 _atom_site_label
 _atom_site_symmetry_multiplicity
 _atom_site_fract_x
 _atom_site_fract_y
 _atom_site_fract_z
 _atom_site_occupancy
  Na  Na0  1  0.54305740  0.15321279  0.58962883  1.0
  Na  Na1  1  0.63479797  0.42254341  0.88809321  1.0
  Na  Na2  1  0.74751423  0.29370637  0.33628524  1.0
  Na  Na3  1  0.63901705  0.71852441  0.20477502  1.0
  Cl  Cl4  1  0.36054451  0.48386901  0.56825042  1.0
  Cl  Cl5  1  0.31156553  0.15334537  0.00128432  1.0
  Cl  Cl6  1  0.02402746  0.07853711  0.73948094  1.0
  Cl  Cl7  1  0.43027751  0.72789746  0.77018374  1.0
