# generated using pymatgen
data_NaCl
_symmetry_space_group_name_H-M   'P 1'
_cell_length_a   6.39533780
_cell_length_b   6.39533780
_cell_length_c   6.39533780
_cell_angle_alpha   90.00000000
_cell_angle_beta   90.00000000
_cell_angle_gamma   90.00000000
_symmetry_Int_Tables_number   1
_chemical_formula_structural   NaCl
_chemical_formula_sum   'Na4 Cl4'
_cell_volume   261.57152610
_cell_formula_units_Z   4
loop_
 _symmetry_equiv_pos_site_id
 _symmetry_equiv_pos_as_xyz
  1  'x, y, z'
loop_
 _atom_site_type_symbol
 _atom_site_label
 _atom_site_symmetry_multiplicity
 _atom_site_fract_x
 _atom_site_fract_y
 _atom_site_fract_z
 _atom_site_occupancy
  Na  Na0  1  0.50900113  0.50900113  0.50900113  1.0
  Na  Na1  1  0.94396705  0.44396705  0.05603295  1.0
  Na  Na2  1  0.30088821  0.19911179  0.80088821  1.0
  Na  Na3  1  0.48210794  0.51789206  0.01789206  1.0
  Cl  Cl4  1  0.77346362  0.77346362  0.77346362  1.0
  Cl  Cl5  1  0.06196244  0.56196244  0.93803756  1.0
  Cl  Cl6  1  0.14666338  0.35333662  0.64666338  1.0
  Cl  Cl7  1  0.92518244  0.07481756  0.57481756  1.0
