# generated using pymatgen
data_NaCl
_symmetry_space_group_name_H-M   'P 1'
_cell_length_a   3.40401056
_cell_length_b   3.40401056
_cell_length_c   19.57468186
_cell_angle_alpha   90.00000000
_cell_angle_beta   90.00000000
_cell_angle_gamma   90.00000000
_symmetry_Int_Tables_number   1
_chemical_formula_structural   NaCl
_chemical_formula_sum   'Na4 Cl4'
_cell_volume   226.81747412
_cell_formula_units_Z   4
loop_
 _symmetry_equiv_pos_site_id
 _symmetry_equiv_pos_as_xyz
  1  'x, y, z'
loop_
 _atom_site_type_symbol
 _atom_site_label
 _atom_site_symmetry_multiplicity
 _atom_site_fract_x
 _atom_site_fract_y
 _atom_site_fract_z
 _atom_site_occupancy
  Na  Na0  1  0.56299906  0.28483426  0.69160344  1.0
  Na  Na1  1  0.33057958  0.51675552  0.34977274  1.0
  Na  Na2  1  0.79403482  0.99860952  0.29778394  1.0
  Na  Na3  1  0.52072800  0.01698124  0.09608014  1.0
  Cl  Cl4  1  0.88463353  0.38216577  0.76264091  1.0
  Cl  Cl5  1  0.48501492  0.00020947  0.49885800  1.0
  Cl  Cl6  1  0.86047664  0.99989580  0.56675918  1.0
  Cl  Cl7  1  0.23504240  0.90944800  0.67553809  1.0
