# generated using pymatgen
data_NaCl
_symmetry_space_group_name_H-M   'P 1'
_cell_length_a   6.04945937
_cell_length_b   4.75917299
_cell_length_c   11.36118028
_cell_angle_alpha   90.00000000
_cell_angle_beta   90.00000000
_cell_angle_gamma   90.00000000
_symmetry_Int_Tables_number   1
_chemical_formula_structural   NaCl
_chemical_formula_sum   'Na4 Cl4'
_cell_volume   327.09319329
_cell_formula_units_Z   4
loop_
 _symmetry_equiv_pos_site_id
 _symmetry_equiv_pos_as_xyz
  1  'x, y, z'
loop_
 _atom_site_type_symbol
 _atom_site_label
 _atom_site_symmetry_multiplicity
 _atom_site_fract_x
 _atom_site_fract_y
 _atom_site_fract_z
 _atom_site_occupancy
  Na  Na0  1  0.00000000  0.43644956  0.71758434  1.0
  Na  Na1  1  0.50000000  0.74664133  0.04431916  1.0
  Na  Na2  1  0.00000000  0.21354349  0.60545672  1.0
  Na  Na3  1  0.50000000  0.31953279  0.26513858  1.0
  Cl  Cl4  1  0.00000000  0.13134867  0.70295139  1.0
  Cl  Cl5  1  0.50000000  0.17611846  0.33918547  1.0
  Cl  Cl6  1  0.00000000  0.51540123  0.55600040  1.0
  Cl  Cl7  1  0.50000000  0.88955784  0.13758127  1.0
