# generated using pymatgen
data_NaCl
_symmetry_space_group_name_H-M   'P 1'
_cell_length_a   7.60674935
_cell_length_b   3.62397188
_cell_length_c   8.08465299
_cell_angle_alpha   90.00000000
_cell_angle_beta   90.00000000
_cell_angle_gamma   90.00000000
_symmetry_Int_Tables_number   1
_chemical_formula_structural   NaCl
_chemical_formula_sum   'Na4 Cl4'
_cell_volume   222.86676493
_cell_formula_units_Z   4
loop_
 _symmetry_equiv_pos_site_id
 _symmetry_equiv_pos_as_xyz
  1  'x, y, z'
loop_
 _atom_site_type_symbol
 _atom_site_label
 _atom_site_symmetry_multiplicity
 _atom_site_fract_x
 _atom_site_fract_y
 _atom_site_fract_z
 _atom_site_occupancy
  Na  Na0  1  0.73378705  0.57805409  0.86578516  1.0
  Na  Na1  1  0.20790509  0.62471373  0.99214430  1.0
  Na  Na2  1  0.99157929  0.54448524  0.08986875  1.0
  Na  Na3  1  0.96568067  0.74654178  0.49801283  1.0
  Cl  Cl4  1  0.24442366  0.18230800  0.87828047  1.0
  Cl  Cl5  1  0.72536242  0.60481987  0.41657631  1.0
  Cl  Cl6  1  0.48329673  0.51554691  0.41918911  1.0
  Cl  Cl7  1  0.45428338  0.05463606  0.84789959  1.0
