# generated using pymatgen
data_NaCl
_symmetry_space_group_name_H-M   'P 1'
_cell_length_a   4.91803320
_cell_length_b   4.91803320
_cell_length_c   15.49406208
_cell_angle_alpha   90.00000000
_cell_angle_beta   90.00000000
_cell_angle_gamma   90.00000000
_symmetry_Int_Tables_number   1
_chemical_formula_structural   NaCl
_chemical_formula_sum   'Na4 Cl4'
_cell_volume   374.75566285
_cell_formula_units_Z   4
loop_
 _symmetry_equiv_pos_site_id
 _symmetry_equiv_pos_as_xyz
  1  'x, y, z'
loop_
 _atom_site_type_symbol
 _atom_site_label
 _atom_site_symmetry_multiplicity
 _atom_site_fract_x
 _atom_site_fract_y
 _atom_site_fract_z
 _atom_site_occupancy
  Na  Na0  1  0.00000000  0.50000000  0.02095710  1.0
  Na  Na1  1  0.50000000  0.00000000  0.82618613  1.0
  Na  Na2  1  0.00000000  0.50000000  0.53632950  1.0
  Na  Na3  1  0.50000000  0.00000000  0.59714953  1.0
  Cl  Cl4  1  0.84757260  0.44214287  0.26234733  1.0
  Cl  Cl5  1  0.91498943  0.39730107  0.64094601  1.0
  Cl  Cl6  1  0.84488570  0.76179251  0.94373612  1.0
  Cl  Cl7  1  0.39605180  0.54227843  0.11685501  1.0
