# generated using pymatgen
data_NaCl
_symmetry_space_group_name_H-M   'P 1'
_cell_length_a   11.28133061
_cell_length_b   6.30261023
_cell_length_c   4.77415929
_cell_angle_alpha   90.00000000
_cell_angle_beta   90.00000000
_cell_angle_gamma   90.00000000
_symmetry_Int_Tables_number   1
_chemical_formula_structural   NaCl
_chemical_formula_sum   'Na4 Cl4'
_cell_volume   339.45146085
_cell_formula_units_Z   4
loop_
 _symmetry_equiv_pos_site_id
 _symmetry_equiv_pos_as_xyz
  1  'x, y, z'
loop_
 _atom_site_type_symbol
 _atom_site_label
 _atom_site_symmetry_multiplicity
 _atom_site_fract_x
 _atom_site_fract_y
 _atom_site_fract_z
 _atom_site_occupancy
  Na  Na0  1  0.57866664  0.74517592  0.56724360  1.0
  Na  Na1  1  0.32611623  0.49167257  0.21063901  1.0
  Na  Na2  1  0.89620730  0.38905026  0.30858000  1.0
  Na  Na3  1  0.92782133  0.07223690  0.03430201  1.0
  Cl  Cl4  1  0.00000000  0.50000000  0.25949647  1.0
  Cl  Cl5  1  0.50000000  0.50000000  0.72212940  1.0
  Cl  Cl6  1  0.00000000  0.50000000  0.00559896  1.0
  Cl  Cl7  1  0.50000000  0.50000000  0.46567454  1.0
