# generated using pymatgen
data_NaCl
_symmetry_space_group_name_H-M   'P 1'
_cell_length_a   5.03218842
_cell_length_b   5.03218842
_cell_length_c   5.03218842
_cell_angle_alpha   90.00000000
_cell_angle_beta   90.00000000
_cell_angle_gamma   90.00000000
_symmetry_Int_Tables_number   1
_chemical_formula_structural   NaCl
_chemical_formula_sum   'Na4 Cl4'
_cell_volume   127.42970627
_cell_formula_units_Z   4
loop_
 _symmetry_equiv_pos_site_id
 _symmetry_equiv_pos_as_xyz
  1  'x, y, z'
loop_
 _atom_site_type_symbol
 _atom_site_label
 _atom_site_symmetry_multiplicity
 _atom_site_fract_x
 _atom_site_fract_y
 _atom_site_fract_z
 _atom_site_occupancy
  Na  Na0  1  0.12863218  0.12863218  0.12863218  1.0
  Na  Na1  1  0.80573865  0.30573865  0.19426135  1.0
  Na  Na2  1  0.64125659  0.85874341  0.14125659  1.0
  Na  Na3  1  0.16943725  0.83056275  0.33056275  1.0
  Cl  Cl4  1  0.97815873  0.97815873  0.97815873  1.0
  Cl  Cl5  1  0.46972189  0.96972189  0.53027811  1.0
  Cl  Cl6  1  0.40811844  0.09188156  0.90811844  1.0
  Cl  Cl7  1  0.90644740  0.09355260  0.59355260  1.0
