# generated using pymatgen
data_NaCl
_symmetry_space_group_name_H-M   'P 1'
_cell_length_a   3.85609521
_cell_length_b   3.85609521
_cell_length_c   19.10315231
_cell_angle_alpha   90.00000000
_cell_angle_beta   90.00000000
_cell_angle_gamma   120.00000000
_symmetry_Int_Tables_number   1
_chemical_formula_structural   NaCl
_chemical_formula_sum   'Na4 Cl4'
_cell_volume   245.99776814
_cell_formula_units_Z   4
loop_
 _symmetry_equiv_pos_site_id
 _symmetry_equiv_pos_as_xyz
  1  'x, y, z'
loop_
 _atom_site_type_symbol
 _atom_site_label
 _atom_site_symmetry_multiplicity
 _atom_site_fract_x
 _atom_site_fract_y
 _atom_site_fract_z
 _atom_site_occupancy
  Na  Na0  1  0.33333333  0.66666667  0.39660777  1.0
  Na  Na1  1  0.66666667  0.33333333  0.01270042  1.0
  Na  Na2  1  0.66666667  0.33333333  0.62001263  1.0
  Na  Na3  1  0.33333333  0.66666667  0.77720688  1.0
  Cl  Cl4  1  0.00000000  0.00000000  0.53225315  1.0
  Cl  Cl5  1  0.00000000  0.00000000  0.09962187  1.0
  Cl  Cl6  1  0.00000000  0.00000000  0.89537515  1.0
  Cl  Cl7  1  0.00000000  0.00000000  0.24949355  1.0
