# generated using pymatgen
data_NaCl
_symmetry_space_group_name_H-M   'P 1'
_cell_length_a   6.68654754
_cell_length_b   6.68654754
_cell_length_c   6.68654754
_cell_angle_alpha   90.00000000
_cell_angle_beta   90.00000000
_cell_angle_gamma   90.00000000
_symmetry_Int_Tables_number   1
_chemical_formula_structural   NaCl
_chemical_formula_sum   'Na4 Cl4'
_cell_volume   298.95499225
_cell_formula_units_Z   4
loop_
 _symmetry_equiv_pos_site_id
 _symmetry_equiv_pos_as_xyz
  1  'x, y, z'
loop_
 _atom_site_type_symbol
 _atom_site_label
 _atom_site_symmetry_multiplicity
 _atom_site_fract_x
 _atom_site_fract_y
 _atom_site_fract_z
 _atom_site_occupancy
  Na  Na0  1  0.21508400  0.21508400  0.21508400  1.0
  Na  Na1  1  0.91971368  0.41971368  0.08028632  1.0
  Na  Na2  1  0.46477705  0.03522295  0.96477705  1.0
  Na  Na3  1  0.14586207  0.85413793  0.35413793  1.0
  Cl  Cl4  1  0.91418052  0.91418052  0.91418052  1.0
  Cl  Cl5  1  0.48280242  0.98280242  0.51719758  1.0
  Cl  Cl6  1  0.19787808  0.30212192  0.69787808  1.0
  Cl  Cl7  1  0.78499343  0.21500657  0.71500657  1.0
