# generated using pymatgen
data_NaCl
_symmetry_space_group_name_H-M   'P 1'
_cell_length_a   6.75331839
_cell_length_b   6.75331839
_cell_length_c   6.75331839
_cell_angle_alpha   90.00000000
_cell_angle_beta   90.00000000
_cell_angle_gamma   90.00000000
_symmetry_Int_Tables_number   1
_chemical_formula_structural   NaCl
_chemical_formula_sum   'Na4 Cl4'
_cell_volume   308.00068046
_cell_formula_units_Z   4
loop_
 _symmetry_equiv_pos_site_id
 _symmetry_equiv_pos_as_xyz
  1  'x, y, z'
loop_
 _atom_site_type_symbol
 _atom_site_label
 _atom_site_symmetry_multiplicity
 _atom_site_fract_x
 _atom_site_fract_y
 _atom_site_fract_z
 _atom_site_occupancy
  Na  Na0  1  0.24645306  0.24645306  0.24645306  1.0
  Na  Na1  1  0.79725225  0.29725225  0.20274775  1.0
  Na  Na2  1  0.76749322  0.73250678  0.26749322  1.0
  Na  Na3  1  0.12018160  0.87981840  0.37981840  1.0
  Cl  Cl4  1  0.78439157  0.78439157  0.78439157  1.0
  Cl  Cl5  1  0.33375423  0.83375423  0.66624577  1.0
  Cl  Cl6  1  0.23732153  0.26267847  0.73732153  1.0
  Cl  Cl7  1  0.87469394  0.12530606  0.62530606  1.0
