# generated using pymatgen
data_NaCl
_symmetry_space_group_name_H-M   'P 1'
_cell_length_a   4.14028036
_cell_length_b   19.27969740
_cell_length_c   5.37922428
_cell_angle_alpha   90.00000000
_cell_angle_beta   63.84133632
_cell_angle_gamma   90.00000000
_symmetry_Int_Tables_number   1
_chemical_formula_structural   NaCl
_chemical_formula_sum   'Na4 Cl4'
_cell_volume   385.40839298
_cell_formula_units_Z   4
loop_
 _symmetry_equiv_pos_site_id
 _symmetry_equiv_pos_as_xyz
  1  'x, y, z'
loop_
 _atom_site_type_symbol
 _atom_site_label
 _atom_site_symmetry_multiplicity
 _atom_site_fract_x
 _atom_site_fract_y
 _atom_site_fract_z
 _atom_site_occupancy
  Na  Na0  1  0.73276766  0.86224770  0.16353898  1.0
  Na  Na1  1  0.41468548  0.20296108  0.31220732  1.0
  Na  Na2  1  0.19402447  0.51963134  0.30778481  1.0
  Na  Na3  1  0.48835557  0.50186272  0.68667859  1.0
  Cl  Cl4  1  0.85311633  0.25283650  0.07674900  1.0
  Cl  Cl5  1  0.77621335  0.02583928  0.37293845  1.0
  Cl  Cl6  1  0.29604956  0.12343964  0.01847913  1.0
  Cl  Cl7  1  0.44266251  0.87935026  0.32037396  1.0
