# generated using pymatgen
data_NaCl
_symmetry_space_group_name_H-M   'P 1'
_cell_length_a   8.70781384
_cell_length_b   12.67790384
_cell_length_c   2.66305857
_cell_angle_alpha   90.00000000
_cell_angle_beta   35.97236452
_cell_angle_gamma   90.00000000
_symmetry_Int_Tables_number   1
_chemical_formula_structural   NaCl
_chemical_formula_sum   'Na4 Cl4'
_cell_volume   172.69013588
_cell_formula_units_Z   4
loop_
 _symmetry_equiv_pos_site_id
 _symmetry_equiv_pos_as_xyz
  1  'x, y, z'
loop_
 _atom_site_type_symbol
 _atom_site_label
 _atom_site_symmetry_multiplicity
 _atom_site_fract_x
 _atom_site_fract_y
 _atom_site_fract_z
 _atom_site_occupancy
  Na  Na0  1  0.38090863  0.77132039  0.67835010  1.0
  Na  Na1  1  0.34354744  0.44130883  0.29878266  1.0
  Na  Na2  1  0.51063816  0.49390870  0.52207053  1.0
  Na  Na3  1  0.79373983  0.89968489  0.94590317  1.0
  Cl  Cl4  1  0.80467869  0.36435998  0.59218827  1.0
  Cl  Cl5  1  0.94591023  0.52108719  0.99823834  1.0
  Cl  Cl6  1  0.02252987  0.80516536  0.83703007  1.0
  Cl  Cl7  1  0.11965077  0.23144061  0.95452141  1.0
