# generated using pymatgen
data_NaCl
_symmetry_space_group_name_H-M   'P 1'
_cell_length_a   4.48660525
_cell_length_b   4.48660525
_cell_length_c   9.54762858
_cell_angle_alpha   90.00000000
_cell_angle_beta   90.00000000
_cell_angle_gamma   90.00000000
_symmetry_Int_Tables_number   1
_chemical_formula_structural   NaCl
_chemical_formula_sum   'Na4 Cl4'
_cell_volume   192.19019889
_cell_formula_units_Z   4
loop_
 _symmetry_equiv_pos_site_id
 _symmetry_equiv_pos_as_xyz
  1  'x, y, z'
loop_
 _atom_site_type_symbol
 _atom_site_label
 _atom_site_symmetry_multiplicity
 _atom_site_fract_x
 _atom_site_fract_y
 _atom_site_fract_z
 _atom_site_occupancy
  Na  Na0  1  0.53465662  0.53465662  0.53112173  1.0
  Na  Na1  1  0.09260696  0.09260696  0.44221154  1.0
  Na  Na2  1  0.67946642  0.32053358  0.21404215  1.0
  Na  Na3  1  0.42459572  0.57540428  0.23539177  1.0
  Cl  Cl4  1  0.64918095  0.00000000  0.34273362  1.0
  Cl  Cl5  1  0.95653291  0.00000000  0.74088520  1.0
  Cl  Cl6  1  0.00000000  0.90500133  0.09962150  1.0
  Cl  Cl7  1  0.00000000  0.80162790  0.51920776  1.0
