# generated using pymatgen
data_NaCl
_symmetry_space_group_name_H-M   'P 1'
_cell_length_a   4.84374604
_cell_length_b   4.84374604
_cell_length_c   4.84374604
_cell_angle_alpha   90.00000000
_cell_angle_beta   90.00000000
_cell_angle_gamma   90.00000000
_symmetry_Int_Tables_number   1
_chemical_formula_structural   NaCl
_chemical_formula_sum   'Na4 Cl4'
_cell_volume   113.64336751
_cell_formula_units_Z   4
loop_
 _symmetry_equiv_pos_site_id
 _symmetry_equiv_pos_as_xyz
  1  'x, y, z'
loop_
 _atom_site_type_symbol
 _atom_site_label
 _atom_site_symmetry_multiplicity
 _atom_site_fract_x
 _atom_site_fract_y
 _atom_site_fract_z
 _atom_site_occupancy
  Na  Na0  1  0.61396487  0.61396487  0.61396487  1.0
  Na  Na1  1  0.04126098  0.54126098  0.95873902  1.0
  Na  Na2  1  0.69862958  0.80137042  0.19862958  1.0
  Na  Na3  1  0.26530668  0.73469332  0.23469332  1.0
  Cl  Cl4  1  0.76967660  0.76967660  0.76967660  1.0
  Cl  Cl5  1  0.41418168  0.91418168  0.58581832  1.0
  Cl  Cl6  1  0.01931231  0.48068769  0.51931231  1.0
  Cl  Cl7  1  0.06657949  0.93342051  0.43342051  1.0
