# generated using pymatgen
data_NaCl
_symmetry_space_group_name_H-M   'P 1'
_cell_length_a   5.29501539
_cell_length_b   5.29501539
_cell_length_c   13.73599415
_cell_angle_alpha   90.00000000
_cell_angle_beta   90.00000000
_cell_angle_gamma   90.00000000
_symmetry_Int_Tables_number   1
_chemical_formula_structural   NaCl
_chemical_formula_sum   'Na4 Cl4'
_cell_volume   385.11865008
_cell_formula_units_Z   4
loop_
 _symmetry_equiv_pos_site_id
 _symmetry_equiv_pos_as_xyz
  1  'x, y, z'
loop_
 _atom_site_type_symbol
 _atom_site_label
 _atom_site_symmetry_multiplicity
 _atom_site_fract_x
 _atom_site_fract_y
 _atom_site_fract_z
 _atom_site_occupancy
  Na  Na0  1  0.22878269  0.94072177  0.25981986  1.0
  Na  Na1  1  0.34380624  0.55408180  0.93984592  1.0
  Na  Na2  1  0.22969761  0.30651326  0.98572775  1.0
  Na  Na3  1  0.56743527  0.32478606  0.83804857  1.0
  Cl  Cl4  1  0.74403851  0.41070776  0.27529967  1.0
  Cl  Cl5  1  0.98214004  0.43035318  0.19619509  1.0
  Cl  Cl6  1  0.77314193  0.73986441  0.50832373  1.0
  Cl  Cl7  1  0.59810420  0.62265709  0.29182142  1.0
