# generated using pymatgen
data_NaCl
_symmetry_space_group_name_H-M   'P 1'
_cell_length_a   6.91975013
_cell_length_b   6.91975013
_cell_length_c   6.91975013
_cell_angle_alpha   90.00000000
_cell_angle_beta   90.00000000
_cell_angle_gamma   90.00000000
_symmetry_Int_Tables_number   1
_chemical_formula_structural   NaCl
_chemical_formula_sum   'Na4 Cl4'
_cell_volume   331.33799317
_cell_formula_units_Z   4
loop_
 _symmetry_equiv_pos_site_id
 _symmetry_equiv_pos_as_xyz
  1  'x, y, z'
loop_
 _atom_site_type_symbol
 _atom_site_label
 _atom_site_symmetry_multiplicity
 _atom_site_fract_x
 _atom_site_fract_y
 _atom_site_fract_z
 _atom_site_occupancy
  Na  Na0  1  0.23676530  0.23676530  0.23676530  1.0
  Na  Na1  1  0.77546970  0.27546970  0.22453030  1.0
  Na  Na2  1  0.66081047  0.83918953  0.16081047  1.0
  Na  Na3  1  0.13624848  0.86375152  0.36375152  1.0
  Cl  Cl4  1  0.76098344  0.76098344  0.76098344  1.0
  Cl  Cl5  1  0.32410822  0.82410822  0.67589178  1.0
  Cl  Cl6  1  0.18016255  0.31983745  0.68016255  1.0
  Cl  Cl7  1  0.85170712  0.14829288  0.64829288  1.0
