# generated using pymatgen
data_NaCl
_symmetry_space_group_name_H-M   'P 1'
_cell_length_a   8.39392989
_cell_length_b   8.39392989
_cell_length_c   4.96248630
_cell_angle_alpha   90.00000000
_cell_angle_beta   90.00000000
_cell_angle_gamma   90.00000000
_symmetry_Int_Tables_number   1
_chemical_formula_structural   NaCl
_chemical_formula_sum   'Na4 Cl4'
_cell_volume   349.64715250
_cell_formula_units_Z   4
loop_
 _symmetry_equiv_pos_site_id
 _symmetry_equiv_pos_as_xyz
  1  'x, y, z'
loop_
 _atom_site_type_symbol
 _atom_site_label
 _atom_site_symmetry_multiplicity
 _atom_site_fract_x
 _atom_site_fract_y
 _atom_site_fract_z
 _atom_site_occupancy
  Na  Na0  1  0.45776537  0.66345238  0.47099266  1.0
  Na  Na1  1  0.34139479  0.53093441  0.58670068  1.0
  Na  Na2  1  0.40277422  0.53698955  0.19574333  1.0
  Na  Na3  1  0.07696963  0.38698107  0.53799441  1.0
  Cl  Cl4  1  0.56672574  0.32077490  0.34504339  1.0
  Cl  Cl5  1  0.97829847  0.42335791  0.25225932  1.0
  Cl  Cl6  1  0.87642958  0.91467066  0.77763216  1.0
  Cl  Cl7  1  0.62859217  0.29424190  0.65410168  1.0
