# generated using pymatgen
data_NaCl
_symmetry_space_group_name_H-M   'P 1'
_cell_length_a   9.59562468
_cell_length_b   9.59562468
_cell_length_c   3.09697819
_cell_angle_alpha   90.00000000
_cell_angle_beta   90.00000000
_cell_angle_gamma   90.00000000
_symmetry_Int_Tables_number   1
_chemical_formula_structural   NaCl
_chemical_formula_sum   'Na4 Cl4'
_cell_volume   285.15740408
_cell_formula_units_Z   4
loop_
 _symmetry_equiv_pos_site_id
 _symmetry_equiv_pos_as_xyz
  1  'x, y, z'
loop_
 _atom_site_type_symbol
 _atom_site_label
 _atom_site_symmetry_multiplicity
 _atom_site_fract_x
 _atom_site_fract_y
 _atom_site_fract_z
 _atom_site_occupancy
  Na  Na0  1  0.29684211  0.29684211  0.00000000  1.0
  Na  Na1  1  0.01436701  0.01436701  0.00000000  1.0
  Na  Na2  1  0.69431870  0.30568130  0.50000000  1.0
  Na  Na3  1  0.09581222  0.90418778  0.50000000  1.0
  Cl  Cl4  1  0.00000000  0.50000000  0.10446856  1.0
  Cl  Cl5  1  0.00000000  0.50000000  0.44548871  1.0
  Cl  Cl6  1  0.50000000  0.00000000  0.40066707  1.0
  Cl  Cl7  1  0.50000000  0.00000000  0.88252886  1.0
