# generated using pymatgen
data_NaCl
_symmetry_space_group_name_H-M   'P 1'
_cell_length_a   4.75665855
_cell_length_b   4.75665855
_cell_length_c   12.56996913
_cell_angle_alpha   90.00000000
_cell_angle_beta   90.00000000
_cell_angle_gamma   90.00000000
_symmetry_Int_Tables_number   1
_chemical_formula_structural   NaCl
_chemical_formula_sum   'Na4 Cl4'
_cell_volume   284.40561460
_cell_formula_units_Z   4
loop_
 _symmetry_equiv_pos_site_id
 _symmetry_equiv_pos_as_xyz
  1  'x, y, z'
loop_
 _atom_site_type_symbol
 _atom_site_label
 _atom_site_symmetry_multiplicity
 _atom_site_fract_x
 _atom_site_fract_y
 _atom_site_fract_z
 _atom_site_occupancy
  Na  Na0  1  0.22899285  0.22899285  0.00000000  1.0
  Na  Na1  1  0.24821664  0.24821664  0.50000000  1.0
  Na  Na2  1  0.23267259  0.76732741  0.25000000  1.0
  Na  Na3  1  0.07216753  0.92783247  0.75000000  1.0
  Cl  Cl4  1  0.97791679  0.97791679  0.00000000  1.0
  Cl  Cl5  1  0.86771507  0.86771507  0.50000000  1.0
  Cl  Cl6  1  0.72337524  0.27662476  0.25000000  1.0
  Cl  Cl7  1  0.82952611  0.17047389  0.75000000  1.0
