# generated using pymatgen
data_NaCl
_symmetry_space_group_name_H-M   'P 1'
_cell_length_a   3.55203554
_cell_length_b   14.48747831
_cell_length_c   5.49003499
_cell_angle_alpha   90.00000000
_cell_angle_beta   90.00000000
_cell_angle_gamma   90.00000000
_symmetry_Int_Tables_number   1
_chemical_formula_structural   NaCl
_chemical_formula_sum   'Na4 Cl4'
_cell_volume   282.51740834
_cell_formula_units_Z   4
loop_
 _symmetry_equiv_pos_site_id
 _symmetry_equiv_pos_as_xyz
  1  'x, y, z'
loop_
 _atom_site_type_symbol
 _atom_site_label
 _atom_site_symmetry_multiplicity
 _atom_site_fract_x
 _atom_site_fract_y
 _atom_site_fract_z
 _atom_site_occupancy
  Na  Na0  1  0.66479229  0.88912355  0.22313293  1.0
  Na  Na1  1  0.22124195  0.11697804  0.15694578  1.0
  Na  Na2  1  0.77362888  0.60753746  0.55034008  1.0
  Na  Na3  1  0.06540129  0.40224460  0.71919177  1.0
  Cl  Cl4  1  0.85155427  0.25353326  0.41773024  1.0
  Cl  Cl5  1  0.83124549  0.60285442  0.95381606  1.0
  Cl  Cl6  1  0.36105122  0.92279890  0.02359768  1.0
  Cl  Cl7  1  0.81022725  0.49069895  0.01733033  1.0
