# generated using pymatgen
data_NaCl
_symmetry_space_group_name_H-M   'P 1'
_cell_length_a   4.22657747
_cell_length_b   4.22657747
_cell_length_c   13.25318472
_cell_angle_alpha   90.00000000
_cell_angle_beta   90.00000000
_cell_angle_gamma   90.00000000
_symmetry_Int_Tables_number   1
_chemical_formula_structural   NaCl
_chemical_formula_sum   'Na4 Cl4'
_cell_volume   236.75432341
_cell_formula_units_Z   4
loop_
 _symmetry_equiv_pos_site_id
 _symmetry_equiv_pos_as_xyz
  1  'x, y, z'
loop_
 _atom_site_type_symbol
 _atom_site_label
 _atom_site_symmetry_multiplicity
 _atom_site_fract_x
 _atom_site_fract_y
 _atom_site_fract_z
 _atom_site_occupancy
  Na  Na0  1  0.03563378  0.03563378  0.00000000  1.0
  Na  Na1  1  0.35031349  0.35031349  0.50000000  1.0
  Na  Na2  1  0.18793957  0.81206043  0.75000000  1.0
  Na  Na3  1  0.18242714  0.81757286  0.25000000  1.0
  Cl  Cl4  1  0.85453297  0.85453297  0.00000000  1.0
  Cl  Cl5  1  0.96713694  0.96713694  0.50000000  1.0
  Cl  Cl6  1  0.76215077  0.23784923  0.75000000  1.0
  Cl  Cl7  1  0.86520871  0.13479129  0.25000000  1.0
