# generated using pymatgen
data_NaCl
_symmetry_space_group_name_H-M   'P 1'
_cell_length_a   5.93083880
_cell_length_b   9.69773382
_cell_length_c   9.58513339
_cell_angle_alpha   90.00000000
_cell_angle_beta   41.28439756
_cell_angle_gamma   90.00000000
_symmetry_Int_Tables_number   1
_chemical_formula_structural   NaCl
_chemical_formula_sum   'Na4 Cl4'
_cell_volume   363.74323023
_cell_formula_units_Z   4
loop_
 _symmetry_equiv_pos_site_id
 _symmetry_equiv_pos_as_xyz
  1  'x, y, z'
loop_
 _atom_site_type_symbol
 _atom_site_label
 _atom_site_symmetry_multiplicity
 _atom_site_fract_x
 _atom_site_fract_y
 _atom_site_fract_z
 _atom_site_occupancy
  Na  Na0  1  0.93683610  0.41642843  0.64560959  1.0
  Na  Na1  1  0.26231326  0.08950415  0.72867575  1.0
  Na  Na2  1  0.25507580  0.18434152  0.51630260  1.0
  Na  Na3  1  0.73910280  0.68775745  0.68437780  1.0
  Cl  Cl4  1  0.41142748  0.27138362  0.19174104  1.0
  Cl  Cl5  1  0.83415399  0.09211005  0.25319889  1.0
  Cl  Cl6  1  0.98271815  0.26892747  0.35074476  1.0
  Cl  Cl7  1  0.56824360  0.08611739  0.76513910  1.0
