# generated using pymatgen
data_NaCl
_symmetry_space_group_name_H-M   'P 1'
_cell_length_a   2.47750049
_cell_length_b   6.68015778
_cell_length_c   10.05175859
_cell_angle_alpha   90.00000000
_cell_angle_beta   90.00000000
_cell_angle_gamma   90.00000000
_symmetry_Int_Tables_number   1
_chemical_formula_structural   NaCl
_chemical_formula_sum   'Na4 Cl4'
_cell_volume   166.35755127
_cell_formula_units_Z   4
loop_
 _symmetry_equiv_pos_site_id
 _symmetry_equiv_pos_as_xyz
  1  'x, y, z'
loop_
 _atom_site_type_symbol
 _atom_site_label
 _atom_site_symmetry_multiplicity
 _atom_site_fract_x
 _atom_site_fract_y
 _atom_site_fract_z
 _atom_site_occupancy
  Na  Na0  1  0.00000000  0.68613937  0.03274612  1.0
  Na  Na1  1  0.00000000  0.51553885  0.65454605  1.0
  Na  Na2  1  0.50000000  0.90364955  0.76974085  1.0
  Na  Na3  1  0.50000000  0.29330847  0.02820444  1.0
  Cl  Cl4  1  0.00000000  0.09141960  0.63144263  1.0
  Cl  Cl5  1  0.00000000  0.54413583  0.45799700  1.0
  Cl  Cl6  1  0.50000000  0.16946165  0.61899884  1.0
  Cl  Cl7  1  0.50000000  0.09354484  0.27004578  1.0
