# generated using pymatgen
data_NaCl
_symmetry_space_group_name_H-M   'P 1'
_cell_length_a   5.74453290
_cell_length_b   5.74453290
_cell_length_c   5.74453290
_cell_angle_alpha   90.00000000
_cell_angle_beta   90.00000000
_cell_angle_gamma   90.00000000
_symmetry_Int_Tables_number   1
_chemical_formula_structural   NaCl
_chemical_formula_sum   'Na4 Cl4'
_cell_volume   189.56762244
_cell_formula_units_Z   4
loop_
 _symmetry_equiv_pos_site_id
 _symmetry_equiv_pos_as_xyz
  1  'x, y, z'
loop_
 _atom_site_type_symbol
 _atom_site_label
 _atom_site_symmetry_multiplicity
 _atom_site_fract_x
 _atom_site_fract_y
 _atom_site_fract_z
 _atom_site_occupancy
  Na  Na0  1  0.10110507  0.10110507  0.10110507  1.0
  Na  Na1  1  0.80199663  0.30199663  0.19800337  1.0
  Na  Na2  1  0.67526435  0.82473565  0.17526435  1.0
  Na  Na3  1  0.15908094  0.84091906  0.34091906  1.0
  Cl  Cl4  1  0.94232626  0.94232626  0.94232626  1.0
  Cl  Cl5  1  0.46874725  0.96874725  0.53125275  1.0
  Cl  Cl6  1  0.37252049  0.12747951  0.87252049  1.0
  Cl  Cl7  1  0.80836249  0.19163751  0.69163751  1.0
