# generated using pymatgen
data_NaCl
_symmetry_space_group_name_H-M   'P 1'
_cell_length_a   5.82899698
_cell_length_b   5.82899698
_cell_length_c   13.72875911
_cell_angle_alpha   90.00000000
_cell_angle_beta   90.00000000
_cell_angle_gamma   120.00000000
_symmetry_Int_Tables_number   1
_chemical_formula_structural   NaCl
_chemical_formula_sum   'Na4 Cl4'
_cell_volume   403.97043048
_cell_formula_units_Z   4
loop_
 _symmetry_equiv_pos_site_id
 _symmetry_equiv_pos_as_xyz
  1  'x, y, z'
loop_
 _atom_site_type_symbol
 _atom_site_label
 _atom_site_symmetry_multiplicity
 _atom_site_fract_x
 _atom_site_fract_y
 _atom_site_fract_z
 _atom_site_occupancy
  Na  Na0  1  0.66666667  0.33333333  0.21217783  1.0
  Na  Na1  1  0.66666667  0.33333333  0.35594503  1.0
  Na  Na2  1  0.66666667  0.33333333  0.60804952  1.0
  Na  Na3  1  0.66666667  0.33333333  0.01724612  1.0
  Cl  Cl4  1  0.33333333  0.66666667  0.07632534  1.0
  Cl  Cl5  1  0.02976572  0.56836953  0.86787612  1.0
  Cl  Cl6  1  0.49121320  0.25648017  0.06762466  1.0
  Cl  Cl7  1  0.07634962  0.63294207  0.52203622  1.0
