# generated using pymatgen
data_NaCl
_symmetry_space_group_name_H-M   'P 1'
_cell_length_a   6.13077135
_cell_length_b   6.13077135
_cell_length_c   6.13077135
_cell_angle_alpha   90.00000000
_cell_angle_beta   90.00000000
_cell_angle_gamma   90.00000000
_symmetry_Int_Tables_number   1
_chemical_formula_structural   NaCl
_chemical_formula_sum   'Na4 Cl4'
_cell_volume   230.43336277
_cell_formula_units_Z   4
loop_
 _symmetry_equiv_pos_site_id
 _symmetry_equiv_pos_as_xyz
  1  'x, y, z'
loop_
 _atom_site_type_symbol
 _atom_site_label
 _atom_site_symmetry_multiplicity
 _atom_site_fract_x
 _atom_site_fract_y
 _atom_site_fract_z
 _atom_site_occupancy
  Na  Na0  1  0.25281807  0.25281807  0.25281807  1.0
  Na  Na1  1  0.84302635  0.34302635  0.15697365  1.0
  Na  Na2  1  0.60120029  0.89879971  0.10120029  1.0
  Na  Na3  1  0.19135599  0.80864401  0.30864401  1.0
  Cl  Cl4  1  0.07724261  0.07724261  0.07724261  1.0
  Cl  Cl5  1  0.37293050  0.87293050  0.62706950  1.0
  Cl  Cl6  1  0.27359197  0.22640803  0.77359197  1.0
  Cl  Cl7  1  0.91419839  0.08580161  0.58580161  1.0
