# generated using pymatgen
data_NaCl
_symmetry_space_group_name_H-M   'P 1'
_cell_length_a   4.06420119
_cell_length_b   13.00478425
_cell_length_c   3.71855282
_cell_angle_alpha   90.00000000
_cell_angle_beta   49.21191878
_cell_angle_gamma   90.00000000
_symmetry_Int_Tables_number   1
_chemical_formula_structural   NaCl
_chemical_formula_sum   'Na4 Cl4'
_cell_volume   148.80698360
_cell_formula_units_Z   4
loop_
 _symmetry_equiv_pos_site_id
 _symmetry_equiv_pos_as_xyz
  1  'x, y, z'
loop_
 _atom_site_type_symbol
 _atom_site_label
 _atom_site_symmetry_multiplicity
 _atom_site_fract_x
 _atom_site_fract_y
 _atom_site_fract_z
 _atom_site_occupancy
  Na  Na0  1  0.49693842  0.85956784  0.96758783  1.0
  Na  Na1  1  0.29486392  0.28802139  0.92217870  1.0
  Na  Na2  1  0.53558261  0.39968474  0.45450271  1.0
  Na  Na3  1  0.12164755  0.50053277  0.90098642  1.0
  Cl  Cl4  1  0.76992533  0.48328746  0.18525107  1.0
  Cl  Cl5  1  0.77618907  0.96355169  0.28115933  1.0
  Cl  Cl6  1  0.92200955  0.02533012  0.33749024  1.0
  Cl  Cl7  1  0.87748607  0.22183443  0.60110953  1.0
