# generated using pymatgen
data_NaCl
_symmetry_space_group_name_H-M   'P 1'
_cell_length_a   2.67636748
_cell_length_b   20.70427946
_cell_length_c   3.54802753
_cell_angle_alpha   90.00000000
_cell_angle_beta   90.00000000
_cell_angle_gamma   90.00000000
_symmetry_Int_Tables_number   1
_chemical_formula_structural   NaCl
_chemical_formula_sum   'Na4 Cl4'
_cell_volume   196.60422484
_cell_formula_units_Z   4
loop_
 _symmetry_equiv_pos_site_id
 _symmetry_equiv_pos_as_xyz
  1  'x, y, z'
loop_
 _atom_site_type_symbol
 _atom_site_label
 _atom_site_symmetry_multiplicity
 _atom_site_fract_x
 _atom_site_fract_y
 _atom_site_fract_z
 _atom_site_occupancy
  Na  Na0  1  0.62974755  0.72419653  0.31807496  1.0
  Na  Na1  1  0.81591096  0.29045308  0.16008366  1.0
  Na  Na2  1  0.68421534  0.73905383  0.74919923  1.0
  Na  Na3  1  0.41516065  0.07532191  0.71456898  1.0
  Cl  Cl4  1  0.00000000  0.38107329  0.40298879  1.0
  Cl  Cl5  1  0.50000000  0.52648884  0.07855721  1.0
  Cl  Cl6  1  0.00000000  0.12327585  0.00084610  1.0
  Cl  Cl7  1  0.50000000  0.30558534  0.97281372  1.0
