# generated using pymatgen
data_NaCl
_symmetry_space_group_name_H-M   'P 1'
_cell_length_a   4.62049233
_cell_length_b   4.30783464
_cell_length_c   7.81228011
_cell_angle_alpha   90.00000000
_cell_angle_beta   119.59227242
_cell_angle_gamma   90.00000000
_symmetry_Int_Tables_number   1
_chemical_formula_structural   NaCl
_chemical_formula_sum   'Na4 Cl4'
_cell_volume   135.21516660
_cell_formula_units_Z   4
loop_
 _symmetry_equiv_pos_site_id
 _symmetry_equiv_pos_as_xyz
  1  'x, y, z'
loop_
 _atom_site_type_symbol
 _atom_site_label
 _atom_site_symmetry_multiplicity
 _atom_site_fract_x
 _atom_site_fract_y
 _atom_site_fract_z
 _atom_site_occupancy
  Na  Na0  1  0.40963121  0.81839609  0.16161365  1.0
  Na  Na1  1  0.59263903  0.16762982  0.63348098  1.0
  Na  Na2  1  0.78610793  0.12008987  0.35501547  1.0
  Na  Na3  1  0.33102895  0.35400240  0.04134506  1.0
  Cl  Cl4  1  0.55876783  0.00000000  0.90684146  1.0
  Cl  Cl5  1  0.92358218  0.50000000  0.34123376  1.0
  Cl  Cl6  1  0.86414116  0.00000000  0.69450126  1.0
  Cl  Cl7  1  0.67084353  0.50000000  0.95300967  1.0
