# generated using pymatgen
data_NaCl
_symmetry_space_group_name_H-M   'P 1'
_cell_length_a   5.93524380
_cell_length_b   5.93524380
_cell_length_c   7.81659981
_cell_angle_alpha   90.00000000
_cell_angle_beta   90.00000000
_cell_angle_gamma   90.00000000
_symmetry_Int_Tables_number   1
_chemical_formula_structural   NaCl
_chemical_formula_sum   'Na4 Cl4'
_cell_volume   275.35629141
_cell_formula_units_Z   4
loop_
 _symmetry_equiv_pos_site_id
 _symmetry_equiv_pos_as_xyz
  1  'x, y, z'
loop_
 _atom_site_type_symbol
 _atom_site_label
 _atom_site_symmetry_multiplicity
 _atom_site_fract_x
 _atom_site_fract_y
 _atom_site_fract_z
 _atom_site_occupancy
  Na  Na0  1  0.29569518  0.29569518  0.00000000  1.0
  Na  Na1  1  0.12574833  0.12574833  0.50000000  1.0
  Na  Na2  1  0.35864674  0.64135326  0.25000000  1.0
  Na  Na3  1  0.21109077  0.78890923  0.75000000  1.0
  Cl  Cl4  1  0.49684093  0.49684093  0.00000000  1.0
  Cl  Cl5  1  0.59274869  0.59274869  0.50000000  1.0
  Cl  Cl6  1  0.50106186  0.49893814  0.25000000  1.0
  Cl  Cl7  1  0.74073059  0.25926941  0.75000000  1.0
