# generated using pymatgen
data_NaCl
_symmetry_space_group_name_H-M   'P 1'
_cell_length_a   9.19198189
_cell_length_b   5.21616281
_cell_length_c   4.95944519
_cell_angle_alpha   90.00000000
_cell_angle_beta   117.42115908
_cell_angle_gamma   90.00000000
_symmetry_Int_Tables_number   1
_chemical_formula_structural   NaCl
_chemical_formula_sum   'Na4 Cl4'
_cell_volume   211.07309964
_cell_formula_units_Z   4
loop_
 _symmetry_equiv_pos_site_id
 _symmetry_equiv_pos_as_xyz
  1  'x, y, z'
loop_
 _atom_site_type_symbol
 _atom_site_label
 _atom_site_symmetry_multiplicity
 _atom_site_fract_x
 _atom_site_fract_y
 _atom_site_fract_z
 _atom_site_occupancy
  Na  Na0  1  0.37229436  0.86223767  0.62334815  1.0
  Na  Na1  1  0.85114665  0.45367075  0.15763073  1.0
  Na  Na2  1  0.79451149  0.65618634  0.36513154  1.0
  Na  Na3  1  0.08336106  0.38994757  0.11347911  1.0
  Cl  Cl4  1  0.61349882  0.03192615  0.90845583  1.0
  Cl  Cl5  1  0.27315191  0.61660878  0.21200371  1.0
  Cl  Cl6  1  0.68189488  0.01979941  0.54287102  1.0
  Cl  Cl7  1  0.78462257  0.91205487  0.25758200  1.0
