# generated using pymatgen
data_NaCl
_symmetry_space_group_name_H-M   'P 1'
_cell_length_a   6.28260434
_cell_length_b   6.32180378
_cell_length_c   7.94135886
_cell_angle_alpha   90.00000000
_cell_angle_beta   90.00000000
_cell_angle_gamma   90.00000000
_symmetry_Int_Tables_number   1
_chemical_formula_structural   NaCl
_chemical_formula_sum   'Na4 Cl4'
_cell_volume   315.41006178
_cell_formula_units_Z   4
loop_
 _symmetry_equiv_pos_site_id
 _symmetry_equiv_pos_as_xyz
  1  'x, y, z'
loop_
 _atom_site_type_symbol
 _atom_site_label
 _atom_site_symmetry_multiplicity
 _atom_site_fract_x
 _atom_site_fract_y
 _atom_site_fract_z
 _atom_site_occupancy
  Na  Na0  1  0.00000000  0.50000000  0.03488429  1.0
  Na  Na1  1  0.50000000  0.00000000  0.10990438  1.0
  Na  Na2  1  0.00000000  0.50000000  0.61770970  1.0
  Na  Na3  1  0.50000000  0.00000000  0.54964643  1.0
  Cl  Cl4  1  0.41867538  0.55953508  0.98066346  1.0
  Cl  Cl5  1  0.63434801  0.84148873  0.36032075  1.0
  Cl  Cl6  1  0.31716243  0.35855085  0.10200304  1.0
  Cl  Cl7  1  0.31862396  0.81174688  0.36646114  1.0
