# generated using pymatgen
data_NaCl
_symmetry_space_group_name_H-M   'P 1'
_cell_length_a   4.35880978
_cell_length_b   5.62338361
_cell_length_c   10.66057032
_cell_angle_alpha   90.00000000
_cell_angle_beta   90.00000000
_cell_angle_gamma   90.00000000
_symmetry_Int_Tables_number   1
_chemical_formula_structural   NaCl
_chemical_formula_sum   'Na4 Cl4'
_cell_volume   261.30400528
_cell_formula_units_Z   4
loop_
 _symmetry_equiv_pos_site_id
 _symmetry_equiv_pos_as_xyz
  1  'x, y, z'
loop_
 _atom_site_type_symbol
 _atom_site_label
 _atom_site_symmetry_multiplicity
 _atom_site_fract_x
 _atom_site_fract_y
 _atom_site_fract_z
 _atom_site_occupancy
  Na  Na0  1  0.35792435  0.00000000  0.86666191  1.0
  Na  Na1  1  0.14218581  0.00000000  0.33685539  1.0
  Na  Na2  1  0.73123784  0.50000000  0.30742162  1.0
  Na  Na3  1  0.74090038  0.50000000  0.62425898  1.0
  Cl  Cl4  1  0.00000000  0.43171972  0.93563682  1.0
  Cl  Cl5  1  0.00000000  0.99894447  0.03919502  1.0
  Cl  Cl6  1  0.50000000  0.89145441  0.14805140  1.0
  Cl  Cl7  1  0.50000000  0.06027816  0.21281155  1.0
