# generated using pymatgen
data_NaCl
_symmetry_space_group_name_H-M   'P 1'
_cell_length_a   8.32419279
_cell_length_b   8.32419279
_cell_length_c   4.97847082
_cell_angle_alpha   90.00000000
_cell_angle_beta   90.00000000
_cell_angle_gamma   90.00000000
_symmetry_Int_Tables_number   1
_chemical_formula_structural   NaCl
_chemical_formula_sum   'Na4 Cl4'
_cell_volume   344.96912409
_cell_formula_units_Z   4
loop_
 _symmetry_equiv_pos_site_id
 _symmetry_equiv_pos_as_xyz
  1  'x, y, z'
loop_
 _atom_site_type_symbol
 _atom_site_label
 _atom_site_symmetry_multiplicity
 _atom_site_fract_x
 _atom_site_fract_y
 _atom_site_fract_z
 _atom_site_occupancy
  Na  Na0  1  0.24487239  0.71691625  0.73069772  1.0
  Na  Na1  1  0.21714727  0.21186140  0.29273913  1.0
  Na  Na2  1  0.60363203  0.06327169  0.76964849  1.0
  Na  Na3  1  0.06149759  0.18462913  0.84413252  1.0
  Cl  Cl4  1  0.54184534  0.42091262  0.88949913  1.0
  Cl  Cl5  1  0.62682881  0.81950454  0.84000780  1.0
  Cl  Cl6  1  0.61453979  0.90608621  0.95044509  1.0
  Cl  Cl7  1  0.73531380  0.68620147  0.57170277  1.0
