# generated using pymatgen
data_NaCl
_symmetry_space_group_name_H-M   'P 1'
_cell_length_a   3.97814615
_cell_length_b   7.52527548
_cell_length_c   10.00125014
_cell_angle_alpha   90.00000000
_cell_angle_beta   90.00000000
_cell_angle_gamma   90.00000000
_symmetry_Int_Tables_number   1
_chemical_formula_structural   NaCl
_chemical_formula_sum   'Na4 Cl4'
_cell_volume   299.40388178
_cell_formula_units_Z   4
loop_
 _symmetry_equiv_pos_site_id
 _symmetry_equiv_pos_as_xyz
  1  'x, y, z'
loop_
 _atom_site_type_symbol
 _atom_site_label
 _atom_site_symmetry_multiplicity
 _atom_site_fract_x
 _atom_site_fract_y
 _atom_site_fract_z
 _atom_site_occupancy
  Na  Na0  1  0.23157093  0.92761280  0.99810362  1.0
  Na  Na1  1  0.10471801  0.32548984  0.44555478  1.0
  Na  Na2  1  0.62248924  0.02779889  0.58770546  1.0
  Na  Na3  1  0.70883577  0.52516132  0.17510121  1.0
  Cl  Cl4  1  0.00000000  0.00000000  0.96746705  1.0
  Cl  Cl5  1  0.50000000  0.50000000  0.03999158  1.0
  Cl  Cl6  1  0.00000000  0.00000000  0.76356079  1.0
  Cl  Cl7  1  0.50000000  0.50000000  0.83549093  1.0
