# generated using pymatgen
data_NaCl
_symmetry_space_group_name_H-M   'P 1'
_cell_length_a   5.78579294
_cell_length_b   5.07214662
_cell_length_c   8.88579960
_cell_angle_alpha   90.00000000
_cell_angle_beta   44.89385349
_cell_angle_gamma   90.00000000
_symmetry_Int_Tables_number   1
_chemical_formula_structural   NaCl
_chemical_formula_sum   'Na4 Cl4'
_cell_volume   184.04758957
_cell_formula_units_Z   4
loop_
 _symmetry_equiv_pos_site_id
 _symmetry_equiv_pos_as_xyz
  1  'x, y, z'
loop_
 _atom_site_type_symbol
 _atom_site_label
 _atom_site_symmetry_multiplicity
 _atom_site_fract_x
 _atom_site_fract_y
 _atom_site_fract_z
 _atom_site_occupancy
  Na  Na0  1  0.18823833  0.00000000  0.30442480  1.0
  Na  Na1  1  0.91727938  0.50000000  0.67986286  1.0
  Na  Na2  1  0.18711121  0.31278743  0.58217981  1.0
  Na  Na3  1  0.55584824  0.91375545  0.20531691  1.0
  Cl  Cl4  1  0.40144678  0.00000000  0.87559272  1.0
  Cl  Cl5  1  0.36596683  0.00000000  0.44914591  1.0
  Cl  Cl6  1  0.97947299  0.29247673  0.57291169  1.0
  Cl  Cl7  1  0.23188726  0.67340729  0.72644905  1.0
