# generated using pymatgen
data_NaCl
_symmetry_space_group_name_H-M   'P 1'
_cell_length_a   16.46713232
_cell_length_b   5.74567266
_cell_length_c   4.13249026
_cell_angle_alpha   90.00000000
_cell_angle_beta   90.00000000
_cell_angle_gamma   90.00000000
_symmetry_Int_Tables_number   1
_chemical_formula_structural   NaCl
_chemical_formula_sum   'Na4 Cl4'
_cell_volume   390.99454093
_cell_formula_units_Z   4
loop_
 _symmetry_equiv_pos_site_id
 _symmetry_equiv_pos_as_xyz
  1  'x, y, z'
loop_
 _atom_site_type_symbol
 _atom_site_label
 _atom_site_symmetry_multiplicity
 _atom_site_fract_x
 _atom_site_fract_y
 _atom_site_fract_z
 _atom_site_occupancy
  Na  Na0  1  0.25000000  0.90246448  0.02830428  1.0
  Na  Na1  1  0.75000000  0.33460743  0.53576824  1.0
  Na  Na2  1  0.25000000  0.38879139  0.59620872  1.0
  Na  Na3  1  0.75000000  0.87875152  0.09694531  1.0
  Cl  Cl4  1  0.00000000  0.50000000  0.96568894  1.0
  Cl  Cl5  1  0.50000000  0.50000000  0.31837265  1.0
  Cl  Cl6  1  0.25000000  0.19077714  0.82416399  1.0
  Cl  Cl7  1  0.75000000  0.47219107  0.82627477  1.0
