# generated using pymatgen
data_NaCl
_symmetry_space_group_name_H-M   'P 1'
_cell_length_a   4.95089294
_cell_length_b   6.30966876
_cell_length_c   5.20461547
_cell_angle_alpha   90.00000000
_cell_angle_beta   89.49004331
_cell_angle_gamma   90.00000000
_symmetry_Int_Tables_number   1
_chemical_formula_structural   NaCl
_chemical_formula_sum   'Na4 Cl4'
_cell_volume   162.57791210
_cell_formula_units_Z   4
loop_
 _symmetry_equiv_pos_site_id
 _symmetry_equiv_pos_as_xyz
  1  'x, y, z'
loop_
 _atom_site_type_symbol
 _atom_site_label
 _atom_site_symmetry_multiplicity
 _atom_site_fract_x
 _atom_site_fract_y
 _atom_site_fract_z
 _atom_site_occupancy
  Na  Na0  1  0.18597130  0.77117401  0.08765266  1.0
  Na  Na1  1  0.81571012  0.23641219  0.64043790  1.0
  Na  Na2  1  0.70891696  0.85382246  0.59778234  1.0
  Na  Na3  1  0.30004934  0.43276328  0.15219088  1.0
  Cl  Cl4  1  0.27686392  0.54780687  0.99984397  1.0
  Cl  Cl5  1  0.35602936  0.74253610  0.32992676  1.0
  Cl  Cl6  1  0.19599420  0.00798831  0.52744613  1.0
  Cl  Cl7  1  0.59262547  0.09901537  0.88762833  1.0
