# generated using pymatgen
data_NaCl
_symmetry_space_group_name_H-M   'P 1'
_cell_length_a   2.99906479
_cell_length_b   5.19747523
_cell_length_c   6.14072536
_cell_angle_alpha   90.00000000
_cell_angle_beta   90.00000000
_cell_angle_gamma   90.00000000
_symmetry_Int_Tables_number   1
_chemical_formula_structural   NaCl
_chemical_formula_sum   'Na4 Cl4'
_cell_volume   95.71895545
_cell_formula_units_Z   4
loop_
 _symmetry_equiv_pos_site_id
 _symmetry_equiv_pos_as_xyz
  1  'x, y, z'
loop_
 _atom_site_type_symbol
 _atom_site_label
 _atom_site_symmetry_multiplicity
 _atom_site_fract_x
 _atom_site_fract_y
 _atom_site_fract_z
 _atom_site_occupancy
  Na  Na0  1  0.00000000  0.79850347  0.10094667  1.0
  Na  Na1  1  0.00000000  0.04988142  0.35337132  1.0
  Na  Na2  1  0.50000000  0.91573933  0.42974713  1.0
  Na  Na3  1  0.50000000  0.33012340  0.51947250  1.0
  Cl  Cl4  1  0.00000000  0.34810733  0.95033522  1.0
  Cl  Cl5  1  0.00000000  0.77939873  0.76490975  1.0
  Cl  Cl6  1  0.50000000  0.70384904  0.50699125  1.0
  Cl  Cl7  1  0.50000000  0.07948694  0.19692591  1.0
