# generated using pymatgen
data_NaCl
_symmetry_space_group_name_H-M   'P 1'
_cell_length_a   4.36274054
_cell_length_b   4.33337756
_cell_length_c   15.26605130
_cell_angle_alpha   90.00000000
_cell_angle_beta   81.29645392
_cell_angle_gamma   90.00000000
_symmetry_Int_Tables_number   1
_chemical_formula_structural   NaCl
_chemical_formula_sum   'Na4 Cl4'
_cell_volume   285.28734474
_cell_formula_units_Z   4
loop_
 _symmetry_equiv_pos_site_id
 _symmetry_equiv_pos_as_xyz
  1  'x, y, z'
loop_
 _atom_site_type_symbol
 _atom_site_label
 _atom_site_symmetry_multiplicity
 _atom_site_fract_x
 _atom_site_fract_y
 _atom_site_fract_z
 _atom_site_occupancy
  Na  Na0  1  0.00000000  0.86789718  0.50000000  1.0
  Na  Na1  1  0.50000000  0.09520197  0.50000000  1.0
  Na  Na2  1  0.00000000  0.28511215  0.50000000  1.0
  Na  Na3  1  0.50000000  0.58143951  0.50000000  1.0
  Cl  Cl4  1  0.37493923  0.51668120  0.95260931  1.0
  Cl  Cl5  1  0.79863747  0.16693217  0.71211828  1.0
  Cl  Cl6  1  0.45026240  0.22434682  0.64699351  1.0
  Cl  Cl7  1  0.16964797  0.21775368  0.20371142  1.0
