# generated using pymatgen
data_NaCl
_symmetry_space_group_name_H-M   'P 1'
_cell_length_a   4.23399976
_cell_length_b   8.17437381
_cell_length_c   6.56147937
_cell_angle_alpha   90.00000000
_cell_angle_beta   90.00000000
_cell_angle_gamma   90.00000000
_symmetry_Int_Tables_number   1
_chemical_formula_structural   NaCl
_chemical_formula_sum   'Na4 Cl4'
_cell_volume   227.09474811
_cell_formula_units_Z   4
loop_
 _symmetry_equiv_pos_site_id
 _symmetry_equiv_pos_as_xyz
  1  'x, y, z'
loop_
 _atom_site_type_symbol
 _atom_site_label
 _atom_site_symmetry_multiplicity
 _atom_site_fract_x
 _atom_site_fract_y
 _atom_site_fract_z
 _atom_site_occupancy
  Na  Na0  1  0.50000000  0.00000000  0.01900097  1.0
  Na  Na1  1  0.50000000  0.50000000  0.21693946  1.0
  Na  Na2  1  0.50000000  0.00000000  0.65995286  1.0
  Na  Na3  1  0.50000000  0.50000000  0.57031667  1.0
  Cl  Cl4  1  0.33473471  0.54567442  0.99811876  1.0
  Cl  Cl5  1  0.55682181  0.62325422  0.43358483  1.0
  Cl  Cl6  1  0.92587389  0.28730341  0.14192723  1.0
  Cl  Cl7  1  0.81064489  0.65019055  0.32911011  1.0
