# generated using pymatgen
data_NaCl
_symmetry_space_group_name_H-M   'P 1'
_cell_length_a   6.97648733
_cell_length_b   7.28877409
_cell_length_c   8.02975881
_cell_angle_alpha   90.00000000
_cell_angle_beta   90.00000000
_cell_angle_gamma   90.00000000
_symmetry_Int_Tables_number   1
_chemical_formula_structural   NaCl
_chemical_formula_sum   'Na4 Cl4'
_cell_volume   408.31355740
_cell_formula_units_Z   4
loop_
 _symmetry_equiv_pos_site_id
 _symmetry_equiv_pos_as_xyz
  1  'x, y, z'
loop_
 _atom_site_type_symbol
 _atom_site_label
 _atom_site_symmetry_multiplicity
 _atom_site_fract_x
 _atom_site_fract_y
 _atom_site_fract_z
 _atom_site_occupancy
  Na  Na0  1  0.35866735  0.90540912  0.07617505  1.0
  Na  Na1  1  0.24108197  0.39416453  0.97343011  1.0
  Na  Na2  1  0.83519174  0.79855336  0.09943916  1.0
  Na  Na3  1  0.25803116  0.23661491  0.84593574  1.0
  Cl  Cl4  1  0.61129705  0.28145948  0.85685865  1.0
  Cl  Cl5  1  0.22659096  0.86855186  0.72213510  1.0
  Cl  Cl6  1  0.06791455  0.96397813  0.64653033  1.0
  Cl  Cl7  1  0.70732600  0.89656357  0.08897383  1.0
