# generated using pymatgen
data_NaCl
_symmetry_space_group_name_H-M   'P 1'
_cell_length_a   7.37005153
_cell_length_b   7.37005153
_cell_length_c   7.21948229
_cell_angle_alpha   90.00000000
_cell_angle_beta   90.00000000
_cell_angle_gamma   90.00000000
_symmetry_Int_Tables_number   1
_chemical_formula_structural   NaCl
_chemical_formula_sum   'Na4 Cl4'
_cell_volume   392.14538119
_cell_formula_units_Z   4
loop_
 _symmetry_equiv_pos_site_id
 _symmetry_equiv_pos_as_xyz
  1  'x, y, z'
loop_
 _atom_site_type_symbol
 _atom_site_label
 _atom_site_symmetry_multiplicity
 _atom_site_fract_x
 _atom_site_fract_y
 _atom_site_fract_z
 _atom_site_occupancy
  Na  Na0  1  0.29883828  0.83163487  0.55098154  1.0
  Na  Na1  1  0.02046044  0.25360569  0.10545590  1.0
  Na  Na2  1  0.72994159  0.17988975  0.92202145  1.0
  Na  Na3  1  0.51895049  0.24743785  0.78705258  1.0
  Cl  Cl4  1  0.38095943  0.64336655  0.92492350  1.0
  Cl  Cl5  1  0.61151663  0.92456077  0.88176869  1.0
  Cl  Cl6  1  0.82350230  0.90768591  0.95268536  1.0
  Cl  Cl7  1  0.39655164  0.71074027  0.53469279  1.0
