# generated using pymatgen
data_NaCl
_symmetry_space_group_name_H-M   'P 1'
_cell_length_a   4.56646674
_cell_length_b   6.40648815
_cell_length_c   7.67735862
_cell_angle_alpha   90.00000000
_cell_angle_beta   90.00000000
_cell_angle_gamma   90.00000000
_symmetry_Int_Tables_number   1
_chemical_formula_structural   NaCl
_chemical_formula_sum   'Na4 Cl4'
_cell_volume   224.60124203
_cell_formula_units_Z   4
loop_
 _symmetry_equiv_pos_site_id
 _symmetry_equiv_pos_as_xyz
  1  'x, y, z'
loop_
 _atom_site_type_symbol
 _atom_site_label
 _atom_site_symmetry_multiplicity
 _atom_site_fract_x
 _atom_site_fract_y
 _atom_site_fract_z
 _atom_site_occupancy
  Na  Na0  1  0.22748629  0.75762090  0.05020892  1.0
  Na  Na1  1  0.16053039  0.34962924  0.01515557  1.0
  Na  Na2  1  0.66031731  0.09942496  0.57880256  1.0
  Na  Na3  1  0.99723562  0.53299987  0.50052904  1.0
  Cl  Cl4  1  0.58731632  0.51699494  0.99953566  1.0
  Cl  Cl5  1  0.59688585  0.85275069  0.88929636  1.0
  Cl  Cl6  1  0.37656416  0.00979577  0.45845523  1.0
  Cl  Cl7  1  0.28616546  0.92971200  0.30516769  1.0
