# generated using pymatgen
data_NaCl
_symmetry_space_group_name_H-M   'P 1'
_cell_length_a   4.74501895
_cell_length_b   4.74501895
_cell_length_c   4.74501895
_cell_angle_alpha   90.00000000
_cell_angle_beta   90.00000000
_cell_angle_gamma   90.00000000
_symmetry_Int_Tables_number   1
_chemical_formula_structural   NaCl
_chemical_formula_sum   'Na4 Cl4'
_cell_volume   106.83507361
_cell_formula_units_Z   4
loop_
 _symmetry_equiv_pos_site_id
 _symmetry_equiv_pos_as_xyz
  1  'x, y, z'
loop_
 _atom_site_type_symbol
 _atom_site_label
 _atom_site_symmetry_multiplicity
 _atom_site_fract_x
 _atom_site_fract_y
 _atom_site_fract_z
 _atom_site_occupancy
  Na  Na0  1  0.13010754  0.13010754  0.13010754  1.0
  Na  Na1  1  0.93824940  0.43824940  0.06175060  1.0
  Na  Na2  1  0.80117494  0.69882506  0.30117494  1.0
  Na  Na3  1  0.18432323  0.81567677  0.31567677  1.0
  Cl  Cl4  1  0.39085449  0.39085449  0.39085449  1.0
  Cl  Cl5  1  0.10887618  0.60887618  0.89112382  1.0
  Cl  Cl6  1  0.04962392  0.45037608  0.54962392  1.0
  Cl  Cl7  1  0.79483669  0.20516331  0.70516331  1.0
