# generated using pymatgen
data_NaCl
_symmetry_space_group_name_H-M   'P 1'
_cell_length_a   24.74340910
_cell_length_b   3.31153284
_cell_length_c   4.64893766
_cell_angle_alpha   90.00000000
_cell_angle_beta   86.27003111
_cell_angle_gamma   90.00000000
_symmetry_Int_Tables_number   1
_chemical_formula_structural   NaCl
_chemical_formula_sum   'Na4 Cl4'
_cell_volume   380.12059010
_cell_formula_units_Z   4
loop_
 _symmetry_equiv_pos_site_id
 _symmetry_equiv_pos_as_xyz
  1  'x, y, z'
loop_
 _atom_site_type_symbol
 _atom_site_label
 _atom_site_symmetry_multiplicity
 _atom_site_fract_x
 _atom_site_fract_y
 _atom_site_fract_z
 _atom_site_occupancy
  Na  Na0  1  0.46708451  0.81093759  0.00002571  1.0
  Na  Na1  1  0.19508008  0.18904748  0.37617375  1.0
  Na  Na2  1  0.04377359  0.40214315  0.53405506  1.0
  Na  Na3  1  0.35195463  0.57503421  0.93837303  1.0
  Cl  Cl4  1  0.31236825  0.36015144  0.87395791  1.0
  Cl  Cl5  1  0.58694279  0.77754775  0.66292510  1.0
  Cl  Cl6  1  0.81528254  0.27124185  0.71050212  1.0
  Cl  Cl7  1  0.88664636  0.97200935  0.23703908  1.0
