# generated using pymatgen
data_NaCl
_symmetry_space_group_name_H-M   'P 1'
_cell_length_a   5.21125294
_cell_length_b   4.92142642
_cell_length_c   10.39867096
_cell_angle_alpha   90.00000000
_cell_angle_beta   90.00000000
_cell_angle_gamma   90.00000000
_symmetry_Int_Tables_number   1
_chemical_formula_structural   NaCl
_chemical_formula_sum   'Na4 Cl4'
_cell_volume   266.69261254
_cell_formula_units_Z   4
loop_
 _symmetry_equiv_pos_site_id
 _symmetry_equiv_pos_as_xyz
  1  'x, y, z'
loop_
 _atom_site_type_symbol
 _atom_site_label
 _atom_site_symmetry_multiplicity
 _atom_site_fract_x
 _atom_site_fract_y
 _atom_site_fract_z
 _atom_site_occupancy
  Na  Na0  1  0.00000000  0.99936821  0.13595154  1.0
  Na  Na1  1  0.00000000  0.43171763  0.12243712  1.0
  Na  Na2  1  0.50000000  0.16836054  0.25616843  1.0
  Na  Na3  1  0.50000000  0.26362064  0.87841480  1.0
  Cl  Cl4  1  0.00000000  0.36053184  0.91095818  1.0
  Cl  Cl5  1  0.00000000  0.72077074  0.59439374  1.0
  Cl  Cl6  1  0.50000000  0.93779298  0.61058574  1.0
  Cl  Cl7  1  0.50000000  0.98313975  0.19460519  1.0
