# generated using pymatgen
data_NaCl
_symmetry_space_group_name_H-M   'P 1'
_cell_length_a   6.26530491
_cell_length_b   6.26530491
_cell_length_c   8.79506049
_cell_angle_alpha   90.00000000
_cell_angle_beta   90.00000000
_cell_angle_gamma   120.00000000
_symmetry_Int_Tables_number   1
_chemical_formula_structural   NaCl
_chemical_formula_sum   'Na4 Cl4'
_cell_volume   298.98808755
_cell_formula_units_Z   4
loop_
 _symmetry_equiv_pos_site_id
 _symmetry_equiv_pos_as_xyz
  1  'x, y, z'
loop_
 _atom_site_type_symbol
 _atom_site_label
 _atom_site_symmetry_multiplicity
 _atom_site_fract_x
 _atom_site_fract_y
 _atom_site_fract_z
 _atom_site_occupancy
  Na  Na0  1  0.33333333  0.66666667  0.92732704  1.0
  Na  Na1  1  0.66666667  0.33333333  0.01793079  1.0
  Na  Na2  1  0.33333333  0.66666667  0.76974757  1.0
  Na  Na3  1  0.66666667  0.33333333  0.58987084  1.0
  Cl  Cl4  1  0.00000000  0.00000000  0.98330167  1.0
  Cl  Cl5  1  0.00000000  0.00000000  0.87840151  1.0
  Cl  Cl6  1  0.00000000  0.00000000  0.68473738  1.0
  Cl  Cl7  1  0.00000000  0.00000000  0.19627922  1.0
