# generated using pymatgen
data_NaCl
_symmetry_space_group_name_H-M   'P 1'
_cell_length_a   6.27735684
_cell_length_b   5.74168319
_cell_length_c   9.91617899
_cell_angle_alpha   90.00000000
_cell_angle_beta   132.78389192
_cell_angle_gamma   90.00000000
_symmetry_Int_Tables_number   1
_chemical_formula_structural   NaCl
_chemical_formula_sum   'Na4 Cl4'
_cell_volume   262.30684727
_cell_formula_units_Z   4
loop_
 _symmetry_equiv_pos_site_id
 _symmetry_equiv_pos_as_xyz
  1  'x, y, z'
loop_
 _atom_site_type_symbol
 _atom_site_label
 _atom_site_symmetry_multiplicity
 _atom_site_fract_x
 _atom_site_fract_y
 _atom_site_fract_z
 _atom_site_occupancy
  Na  Na0  1  0.31009711  0.79771157  0.89199389  1.0
  Na  Na1  1  0.40671386  0.31184186  0.04249272  1.0
  Na  Na2  1  0.24250690  0.41427174  0.62850561  1.0
  Na  Na3  1  0.37383347  0.86931495  0.55868322  1.0
  Cl  Cl4  1  0.45298971  0.49409878  0.96026501  1.0
  Cl  Cl5  1  0.05758844  0.89117663  0.61831274  1.0
  Cl  Cl6  1  0.84434589  0.54462286  0.61550326  1.0
  Cl  Cl7  1  0.20339924  0.34763269  0.43763886  1.0
