# generated using pymatgen
data_NaCl
_symmetry_space_group_name_H-M   'P 1'
_cell_length_a   5.20567417
_cell_length_b   6.09851046
_cell_length_c   9.59033304
_cell_angle_alpha   90.00000000
_cell_angle_beta   90.00000000
_cell_angle_gamma   90.00000000
_symmetry_Int_Tables_number   1
_chemical_formula_structural   NaCl
_chemical_formula_sum   'Na4 Cl4'
_cell_volume   304.46294481
_cell_formula_units_Z   4
loop_
 _symmetry_equiv_pos_site_id
 _symmetry_equiv_pos_as_xyz
  1  'x, y, z'
loop_
 _atom_site_type_symbol
 _atom_site_label
 _atom_site_symmetry_multiplicity
 _atom_site_fract_x
 _atom_site_fract_y
 _atom_site_fract_z
 _atom_site_occupancy
  Na  Na0  1  0.34384230  0.01726617  0.10316564  1.0
  Na  Na1  1  0.69367595  0.26066009  0.07599682  1.0
  Na  Na2  1  0.85685856  0.89016872  0.82681703  1.0
  Na  Na3  1  0.91763259  0.38733652  0.78343120  1.0
  Cl  Cl4  1  0.29975020  0.55001646  0.99988975  1.0
  Cl  Cl5  1  0.21600428  0.76868622  0.58268257  1.0
  Cl  Cl6  1  0.02084675  0.91520241  0.96077883  1.0
  Cl  Cl7  1  0.72127078  0.06654017  0.07780753  1.0
