# generated using pymatgen
data_NaCl
_symmetry_space_group_name_H-M   'P 1'
_cell_length_a   2.02469751
_cell_length_b   5.18592216
_cell_length_c   14.14793083
_cell_angle_alpha   90.00000000
_cell_angle_beta   90.00000000
_cell_angle_gamma   90.00000000
_symmetry_Int_Tables_number   1
_chemical_formula_structural   NaCl
_chemical_formula_sum   'Na4 Cl4'
_cell_volume   148.55219401
_cell_formula_units_Z   4
loop_
 _symmetry_equiv_pos_site_id
 _symmetry_equiv_pos_as_xyz
  1  'x, y, z'
loop_
 _atom_site_type_symbol
 _atom_site_label
 _atom_site_symmetry_multiplicity
 _atom_site_fract_x
 _atom_site_fract_y
 _atom_site_fract_z
 _atom_site_occupancy
  Na  Na0  1  0.00000000  0.96713465  0.27592827  1.0
  Na  Na1  1  0.00000000  0.45027458  0.18678146  1.0
  Na  Na2  1  0.00000000  0.44521339  0.39440690  1.0
  Na  Na3  1  0.00000000  0.69654892  0.81522900  1.0
  Cl  Cl4  1  0.55025099  0.39481947  0.87526992  1.0
  Cl  Cl5  1  0.69353906  0.83165620  0.64587029  1.0
  Cl  Cl6  1  0.92499448  0.80301847  0.97266853  1.0
  Cl  Cl7  1  0.73590810  0.47379222  0.57819231  1.0
