# generated using pymatgen
data_NaCl
_symmetry_space_group_name_H-M   'P 1'
_cell_length_a   4.90425787
_cell_length_b   4.90425787
_cell_length_c   13.64394026
_cell_angle_alpha   90.00000000
_cell_angle_beta   90.00000000
_cell_angle_gamma   90.00000000
_symmetry_Int_Tables_number   1
_chemical_formula_structural   NaCl
_chemical_formula_sum   'Na4 Cl4'
_cell_volume   328.16057541
_cell_formula_units_Z   4
loop_
 _symmetry_equiv_pos_site_id
 _symmetry_equiv_pos_as_xyz
  1  'x, y, z'
loop_
 _atom_site_type_symbol
 _atom_site_label
 _atom_site_symmetry_multiplicity
 _atom_site_fract_x
 _atom_site_fract_y
 _atom_site_fract_z
 _atom_site_occupancy
  Na  Na0  1  0.50000000  0.86232584  0.00000000  1.0
  Na  Na1  1  0.50000000  0.31717276  0.50000000  1.0
  Na  Na2  1  0.64359066  0.50000000  0.25000000  1.0
  Na  Na3  1  0.00093512  0.50000000  0.75000000  1.0
  Cl  Cl4  1  0.41758775  0.41758775  0.37500000  1.0
  Cl  Cl5  1  0.65545992  0.65545992  0.87500000  1.0
  Cl  Cl6  1  0.05805061  0.94194939  0.62500000  1.0
  Cl  Cl7  1  0.23553527  0.76446473  0.12500000  1.0
