# generated using pymatgen
data_NaCl
_symmetry_space_group_name_H-M   'P 1'
_cell_length_a   4.90792284
_cell_length_b   6.59750077
_cell_length_c   13.22240443
_cell_angle_alpha   90.00000000
_cell_angle_beta   69.33926537
_cell_angle_gamma   90.00000000
_symmetry_Int_Tables_number   1
_chemical_formula_structural   NaCl
_chemical_formula_sum   'Na4 Cl4'
_cell_volume   400.60629349
_cell_formula_units_Z   4
loop_
 _symmetry_equiv_pos_site_id
 _symmetry_equiv_pos_as_xyz
  1  'x, y, z'
loop_
 _atom_site_type_symbol
 _atom_site_label
 _atom_site_symmetry_multiplicity
 _atom_site_fract_x
 _atom_site_fract_y
 _atom_site_fract_z
 _atom_site_occupancy
  Na  Na0  1  0.30425487  0.83419647  0.95234954  1.0
  Na  Na1  1  0.16382606  0.04172102  0.07313816  1.0
  Na  Na2  1  0.79919660  0.75611555  0.16072999  1.0
  Na  Na3  1  0.97973614  0.46285074  0.66835003  1.0
  Cl  Cl4  1  0.00000000  0.00000000  0.00000000  1.0
  Cl  Cl5  1  0.00000000  0.50000000  0.50000000  1.0
  Cl  Cl6  1  0.00000000  0.00000000  0.50000000  1.0
  Cl  Cl7  1  0.00000000  0.50000000  0.00000000  1.0
