# generated using pymatgen
data_NaCl
_symmetry_space_group_name_H-M   'P 1'
_cell_length_a   4.41684692
_cell_length_b   7.16299513
_cell_length_c   5.97068762
_cell_angle_alpha   90.00000000
_cell_angle_beta   90.00000000
_cell_angle_gamma   90.00000000
_symmetry_Int_Tables_number   1
_chemical_formula_structural   NaCl
_chemical_formula_sum   'Na4 Cl4'
_cell_volume   188.89973710
_cell_formula_units_Z   4
loop_
 _symmetry_equiv_pos_site_id
 _symmetry_equiv_pos_as_xyz
  1  'x, y, z'
loop_
 _atom_site_type_symbol
 _atom_site_label
 _atom_site_symmetry_multiplicity
 _atom_site_fract_x
 _atom_site_fract_y
 _atom_site_fract_z
 _atom_site_occupancy
  Na  Na0  1  0.26508414  0.75323432  0.13118013  1.0
  Na  Na1  1  0.11777553  0.28825288  0.24218588  1.0
  Na  Na2  1  0.79626736  0.23830043  0.57155511  1.0
  Na  Na3  1  0.84491985  0.57127302  0.60763642  1.0
  Cl  Cl4  1  0.35541960  0.49230530  0.84876013  1.0
  Cl  Cl5  1  0.49274823  0.78275889  0.94444854  1.0
  Cl  Cl6  1  0.27078638  0.13913988  0.57058173  1.0
  Cl  Cl7  1  0.25760002  0.90897531  0.29361591  1.0
