# generated using pymatgen
data_NaCl
_symmetry_space_group_name_H-M   'P 1'
_cell_length_a   6.33164329
_cell_length_b   5.77672617
_cell_length_c   6.56680017
_cell_angle_alpha   90.00000000
_cell_angle_beta   100.58530449
_cell_angle_gamma   90.00000000
_symmetry_Int_Tables_number   1
_chemical_formula_structural   NaCl
_chemical_formula_sum   'Na4 Cl4'
_cell_volume   236.10098943
_cell_formula_units_Z   4
loop_
 _symmetry_equiv_pos_site_id
 _symmetry_equiv_pos_as_xyz
  1  'x, y, z'
loop_
 _atom_site_type_symbol
 _atom_site_label
 _atom_site_symmetry_multiplicity
 _atom_site_fract_x
 _atom_site_fract_y
 _atom_site_fract_z
 _atom_site_occupancy
  Na  Na0  1  0.61160035  0.87998544  0.03024539  1.0
  Na  Na1  1  0.87959752  0.33863961  0.02291742  1.0
  Na  Na2  1  0.62428953  0.72986900  0.50767970  1.0
  Na  Na3  1  0.19767769  0.46932786  0.87327022  1.0
  Cl  Cl4  1  0.59834128  0.21762105  0.88232172  1.0
  Cl  Cl5  1  0.39173639  0.74150504  0.91203956  1.0
  Cl  Cl6  1  0.33089812  0.68761071  0.71717239  1.0
  Cl  Cl7  1  0.67153985  0.25322077  0.30913317  1.0
