# generated using pymatgen
data_NaCl
_symmetry_space_group_name_H-M   'P 1'
_cell_length_a   7.20732586
_cell_length_b   7.20732586
_cell_length_c   6.29857767
_cell_angle_alpha   90.00000000
_cell_angle_beta   90.00000000
_cell_angle_gamma   90.00000000
_symmetry_Int_Tables_number   1
_chemical_formula_structural   NaCl
_chemical_formula_sum   'Na4 Cl4'
_cell_volume   327.18305642
_cell_formula_units_Z   4
loop_
 _symmetry_equiv_pos_site_id
 _symmetry_equiv_pos_as_xyz
  1  'x, y, z'
loop_
 _atom_site_type_symbol
 _atom_site_label
 _atom_site_symmetry_multiplicity
 _atom_site_fract_x
 _atom_site_fract_y
 _atom_site_fract_z
 _atom_site_occupancy
  Na  Na0  1  0.30515926  0.30515926  0.00000000  1.0
  Na  Na1  1  0.04250575  0.04250575  0.50000000  1.0
  Na  Na2  1  0.36372895  0.63627105  0.25000000  1.0
  Na  Na3  1  0.17013167  0.82986833  0.75000000  1.0
  Cl  Cl4  1  0.45439886  0.45439886  0.00000000  1.0
  Cl  Cl5  1  0.65910936  0.65910936  0.50000000  1.0
  Cl  Cl6  1  0.69238878  0.30761122  0.25000000  1.0
  Cl  Cl7  1  0.68394668  0.31605332  0.75000000  1.0
