# generated using pymatgen
data_NaCl
_symmetry_space_group_name_H-M   'P 1'
_cell_length_a   5.82817447
_cell_length_b   8.44967271
_cell_length_c   7.98363160
_cell_angle_alpha   90.00000000
_cell_angle_beta   92.46272455
_cell_angle_gamma   90.00000000
_symmetry_Int_Tables_number   1
_chemical_formula_structural   NaCl
_chemical_formula_sum   'Na4 Cl4'
_cell_volume   392.80012290
_cell_formula_units_Z   4
loop_
 _symmetry_equiv_pos_site_id
 _symmetry_equiv_pos_as_xyz
  1  'x, y, z'
loop_
 _atom_site_type_symbol
 _atom_site_label
 _atom_site_symmetry_multiplicity
 _atom_site_fract_x
 _atom_site_fract_y
 _atom_site_fract_z
 _atom_site_occupancy
  Na  Na0  1  0.35394589  0.80676114  0.96143683  1.0
  Na  Na1  1  0.81312210  0.35149290  0.96971355  1.0
  Na  Na2  1  0.77263227  0.94709528  0.58072349  1.0
  Na  Na3  1  0.24359072  0.45522537  0.66371888  1.0
  Cl  Cl4  1  0.38001082  0.55700410  0.90666959  1.0
  Cl  Cl5  1  0.34262610  0.90837047  0.55892081  1.0
  Cl  Cl6  1  0.42939750  0.93145485  0.73342936  1.0
  Cl  Cl7  1  0.69690065  0.95732157  0.37719504  1.0
