# generated using pymatgen
data_NaCl
_symmetry_space_group_name_H-M   'P 1'
_cell_length_a   6.49091225
_cell_length_b   5.40858805
_cell_length_c   4.94633925
_cell_angle_alpha   90.00000000
_cell_angle_beta   83.89045917
_cell_angle_gamma   90.00000000
_symmetry_Int_Tables_number   1
_chemical_formula_structural   NaCl
_chemical_formula_sum   'Na4 Cl4'
_cell_volume   172.66321358
_cell_formula_units_Z   4
loop_
 _symmetry_equiv_pos_site_id
 _symmetry_equiv_pos_as_xyz
  1  'x, y, z'
loop_
 _atom_site_type_symbol
 _atom_site_label
 _atom_site_symmetry_multiplicity
 _atom_site_fract_x
 _atom_site_fract_y
 _atom_site_fract_z
 _atom_site_occupancy
  Na  Na0  1  0.24654163  0.50000000  0.01756197  1.0
  Na  Na1  1  0.80470893  0.50000000  0.59489261  1.0
  Na  Na2  1  0.12488425  0.39570995  0.59275127  1.0
  Na  Na3  1  0.50092584  0.87621337  0.11888239  1.0
  Cl  Cl4  1  0.37252707  0.00000000  0.87486893  1.0
  Cl  Cl5  1  0.32891212  0.00000000  0.38637401  1.0
  Cl  Cl6  1  0.96946186  0.50000000  0.89903170  1.0
  Cl  Cl7  1  0.22948631  0.50000000  0.76974530  1.0
