# generated using pymatgen
data_NaCl
_symmetry_space_group_name_H-M   'P 1'
_cell_length_a   7.09871757
_cell_length_b   7.22919482
_cell_length_c   6.74965498
_cell_angle_alpha   90.00000000
_cell_angle_beta   90.00000000
_cell_angle_gamma   90.00000000
_symmetry_Int_Tables_number   1
_chemical_formula_structural   NaCl
_chemical_formula_sum   'Na4 Cl4'
_cell_volume   346.37887719
_cell_formula_units_Z   4
loop_
 _symmetry_equiv_pos_site_id
 _symmetry_equiv_pos_as_xyz
  1  'x, y, z'
loop_
 _atom_site_type_symbol
 _atom_site_label
 _atom_site_symmetry_multiplicity
 _atom_site_fract_x
 _atom_site_fract_y
 _atom_site_fract_z
 _atom_site_occupancy
  Na  Na0  1  0.21459467  0.78237415  0.06790646  1.0
  Na  Na1  1  0.17877523  0.27249831  0.72580879  1.0
  Na  Na2  1  0.64514643  0.64458058  0.66240680  1.0
  Na  Na3  1  0.81066245  0.13157950  0.07382781  1.0
  Cl  Cl4  1  0.00000000  0.00000000  0.98341537  1.0
  Cl  Cl5  1  0.50000000  0.00000000  0.33864298  1.0
  Cl  Cl6  1  0.00000000  0.00000000  0.66582772  1.0
  Cl  Cl7  1  0.50000000  0.00000000  0.85626895  1.0
