# generated using pymatgen
data_NaCl
_symmetry_space_group_name_H-M   'P 1'
_cell_length_a   4.68568641
_cell_length_b   4.68568641
_cell_length_c   4.68568641
_cell_angle_alpha   90.00000000
_cell_angle_beta   90.00000000
_cell_angle_gamma   90.00000000
_symmetry_Int_Tables_number   1
_chemical_formula_structural   NaCl
_chemical_formula_sum   'Na4 Cl4'
_cell_volume   102.87732425
_cell_formula_units_Z   4
loop_
 _symmetry_equiv_pos_site_id
 _symmetry_equiv_pos_as_xyz
  1  'x, y, z'
loop_
 _atom_site_type_symbol
 _atom_site_label
 _atom_site_symmetry_multiplicity
 _atom_site_fract_x
 _atom_site_fract_y
 _atom_site_fract_z
 _atom_site_occupancy
  Na  Na0  1  0.20247294  0.20247294  0.20247294  1.0
  Na  Na1  1  0.63272965  0.13272965  0.36727035  1.0
  Na  Na2  1  0.88578840  0.61421160  0.38578840  1.0
  Na  Na3  1  0.93913927  0.06086073  0.56086073  1.0
  Cl  Cl4  1  0.34628561  0.34628561  0.34628561  1.0
  Cl  Cl5  1  0.08870811  0.58870811  0.91129189  1.0
  Cl  Cl6  1  0.15133942  0.34866058  0.65133942  1.0
  Cl  Cl7  1  0.76031225  0.23968775  0.73968775  1.0
