# generated using pymatgen
data_NaCl
_symmetry_space_group_name_H-M   'P 1'
_cell_length_a   5.63689147
_cell_length_b   5.63689147
_cell_length_c   6.61681817
_cell_angle_alpha   90.00000000
_cell_angle_beta   90.00000000
_cell_angle_gamma   120.00000000
_symmetry_Int_Tables_number   1
_chemical_formula_structural   NaCl
_chemical_formula_sum   'Na4 Cl4'
_cell_volume   182.07871448
_cell_formula_units_Z   4
loop_
 _symmetry_equiv_pos_site_id
 _symmetry_equiv_pos_as_xyz
  1  'x, y, z'
loop_
 _atom_site_type_symbol
 _atom_site_label
 _atom_site_symmetry_multiplicity
 _atom_site_fract_x
 _atom_site_fract_y
 _atom_site_fract_z
 _atom_site_occupancy
  Na  Na0  1  0.00000000  0.00000000  0.03328549  1.0
  Na  Na1  1  0.00000000  0.00000000  0.30040867  1.0
  Na  Na2  1  0.33333333  0.66666667  0.46267419  1.0
  Na  Na3  1  0.66666667  0.33333333  0.65264755  1.0
  Cl  Cl4  1  0.33333333  0.66666667  0.95322009  1.0
  Cl  Cl5  1  0.66666667  0.33333333  0.00014386  1.0
  Cl  Cl6  1  0.33333333  0.66666667  0.68214510  1.0
  Cl  Cl7  1  0.66666667  0.33333333  0.41330394  1.0
