# generated using pymatgen
data_NaCl
_symmetry_space_group_name_H-M   'P 1'
_cell_length_a   4.49650587
_cell_length_b   4.40440136
_cell_length_c   7.66891861
_cell_angle_alpha   90.00000000
_cell_angle_beta   90.00000000
_cell_angle_gamma   90.00000000
_symmetry_Int_Tables_number   1
_chemical_formula_structural   NaCl
_chemical_formula_sum   'Na4 Cl4'
_cell_volume   151.87845879
_cell_formula_units_Z   4
loop_
 _symmetry_equiv_pos_site_id
 _symmetry_equiv_pos_as_xyz
  1  'x, y, z'
loop_
 _atom_site_type_symbol
 _atom_site_label
 _atom_site_symmetry_multiplicity
 _atom_site_fract_x
 _atom_site_fract_y
 _atom_site_fract_z
 _atom_site_occupancy
  Na  Na0  1  0.25000000  0.82116937  0.18046865  1.0
  Na  Na1  1  0.75000000  0.38566517  0.57929505  1.0
  Na  Na2  1  0.75000000  0.96289227  0.08857021  1.0
  Na  Na3  1  0.25000000  0.80906355  0.55304812  1.0
  Cl  Cl4  1  0.00000000  0.00000000  0.93954622  1.0
  Cl  Cl5  1  0.50000000  0.00000000  0.22724591  1.0
  Cl  Cl6  1  0.50000000  0.50000000  0.09308913  1.0
  Cl  Cl7  1  0.00000000  0.50000000  0.40384161  1.0
