# generated using pymatgen
data_NaCl
_symmetry_space_group_name_H-M   'P 1'
_cell_length_a   6.54145331
_cell_length_b   6.54145331
_cell_length_c   9.00065491
_cell_angle_alpha   90.00000000
_cell_angle_beta   90.00000000
_cell_angle_gamma   90.00000000
_symmetry_Int_Tables_number   1
_chemical_formula_structural   NaCl
_chemical_formula_sum   'Na4 Cl4'
_cell_volume   385.14352666
_cell_formula_units_Z   4
loop_
 _symmetry_equiv_pos_site_id
 _symmetry_equiv_pos_as_xyz
  1  'x, y, z'
loop_
 _atom_site_type_symbol
 _atom_site_label
 _atom_site_symmetry_multiplicity
 _atom_site_fract_x
 _atom_site_fract_y
 _atom_site_fract_z
 _atom_site_occupancy
  Na  Na0  1  0.50000000  0.00000000  0.01591604  1.0
  Na  Na1  1  0.00000000  0.50000000  0.73975203  1.0
  Na  Na2  1  0.50000000  0.00000000  0.58862990  1.0
  Na  Na3  1  0.00000000  0.50000000  0.18338538  1.0
  Cl  Cl4  1  0.00000000  0.00000000  0.93643314  1.0
  Cl  Cl5  1  0.00000000  0.00000000  0.21966918  1.0
  Cl  Cl6  1  0.00000000  0.00000000  0.76785368  1.0
  Cl  Cl7  1  0.50000000  0.50000000  0.97926059  1.0
