# generated using pymatgen
data_NaCl
_symmetry_space_group_name_H-M   'P 1'
_cell_length_a   4.79747166
_cell_length_b   4.79747166
_cell_length_c   6.36092031
_cell_angle_alpha   90.00000000
_cell_angle_beta   90.00000000
_cell_angle_gamma   90.00000000
_symmetry_Int_Tables_number   1
_chemical_formula_structural   NaCl
_chemical_formula_sum   'Na4 Cl4'
_cell_volume   146.40125194
_cell_formula_units_Z   4
loop_
 _symmetry_equiv_pos_site_id
 _symmetry_equiv_pos_as_xyz
  1  'x, y, z'
loop_
 _atom_site_type_symbol
 _atom_site_label
 _atom_site_symmetry_multiplicity
 _atom_site_fract_x
 _atom_site_fract_y
 _atom_site_fract_z
 _atom_site_occupancy
  Na  Na0  1  0.25910545  0.79043818  0.00059609  1.0
  Na  Na1  1  0.25741916  0.33850939  0.14382167  1.0
  Na  Na2  1  0.65917557  0.09337513  0.87587675  1.0
  Na  Na3  1  0.19923233  0.61313498  0.76447339  1.0
  Cl  Cl4  1  0.34906696  0.20694380  0.97015819  1.0
  Cl  Cl5  1  0.59139755  0.67178908  0.96380303  1.0
  Cl  Cl6  1  0.77944188  0.93802744  0.98500607  1.0
  Cl  Cl7  1  0.70628533  0.87379263  0.62834412  1.0
