# generated using pymatgen
data_NaCl
_symmetry_space_group_name_H-M   'P 1'
_cell_length_a   6.98580440
_cell_length_b   4.72624520
_cell_length_c   7.74229734
_cell_angle_alpha   90.00000000
_cell_angle_beta   90.00000000
_cell_angle_gamma   90.00000000
_symmetry_Int_Tables_number   1
_chemical_formula_structural   NaCl
_chemical_formula_sum   'Na4 Cl4'
_cell_volume   255.62452415
_cell_formula_units_Z   4
loop_
 _symmetry_equiv_pos_site_id
 _symmetry_equiv_pos_as_xyz
  1  'x, y, z'
loop_
 _atom_site_type_symbol
 _atom_site_label
 _atom_site_symmetry_multiplicity
 _atom_site_fract_x
 _atom_site_fract_y
 _atom_site_fract_z
 _atom_site_occupancy
  Na  Na0  1  0.26704181  0.71194525  0.05295058  1.0
  Na  Na1  1  0.25970309  0.40368180  0.94612002  1.0
  Na  Na2  1  0.72036601  0.19756553  0.56122881  1.0
  Na  Na3  1  0.52793883  0.51548248  0.55187469  1.0
  Cl  Cl4  1  0.09112313  0.61474649  0.99950030  1.0
  Cl  Cl5  1  0.70683933  0.93911104  0.87569241  1.0
  Cl  Cl6  1  0.48341317  0.22270050  0.57422192  1.0
  Cl  Cl7  1  0.30092326  0.74781397  0.36045329  1.0
