# generated using pymatgen
data_NaCl
_symmetry_space_group_name_H-M   'P 1'
_cell_length_a   7.02872901
_cell_length_b   7.02872901
_cell_length_c   7.02872901
_cell_angle_alpha   90.00000000
_cell_angle_beta   90.00000000
_cell_angle_gamma   90.00000000
_symmetry_Int_Tables_number   1
_chemical_formula_structural   NaCl
_chemical_formula_sum   'Na4 Cl4'
_cell_volume   347.24052066
_cell_formula_units_Z   4
loop_
 _symmetry_equiv_pos_site_id
 _symmetry_equiv_pos_as_xyz
  1  'x, y, z'
loop_
 _atom_site_type_symbol
 _atom_site_label
 _atom_site_symmetry_multiplicity
 _atom_site_fract_x
 _atom_site_fract_y
 _atom_site_fract_z
 _atom_site_occupancy
  Na  Na0  1  0.48549278  0.48549278  0.48549278  1.0
  Na  Na1  1  0.10186339  0.60186339  0.89813661  1.0
  Na  Na2  1  0.94803683  0.55196317  0.44803683  1.0
  Na  Na3  1  0.37029668  0.62970332  0.12970332  1.0
  Cl  Cl4  1  0.63901779  0.63901779  0.63901779  1.0
  Cl  Cl5  1  0.94268023  0.44268023  0.05731977  1.0
  Cl  Cl6  1  0.41127381  0.08872619  0.91127381  1.0
  Cl  Cl7  1  0.86634961  0.13365039  0.63365039  1.0
