# generated using pymatgen
data_NaCl
_symmetry_space_group_name_H-M   'P 1'
_cell_length_a   3.56503257
_cell_length_b   3.66430640
_cell_length_c   11.03470105
_cell_angle_alpha   90.00000000
_cell_angle_beta   90.00000000
_cell_angle_gamma   90.00000000
_symmetry_Int_Tables_number   1
_chemical_formula_structural   NaCl
_chemical_formula_sum   'Na4 Cl4'
_cell_volume   144.15040100
_cell_formula_units_Z   4
loop_
 _symmetry_equiv_pos_site_id
 _symmetry_equiv_pos_as_xyz
  1  'x, y, z'
loop_
 _atom_site_type_symbol
 _atom_site_label
 _atom_site_symmetry_multiplicity
 _atom_site_fract_x
 _atom_site_fract_y
 _atom_site_fract_z
 _atom_site_occupancy
  Na  Na0  1  0.25000000  0.80775185  0.92914908  1.0
  Na  Na1  1  0.75000000  0.26802117  0.63066472  1.0
  Na  Na2  1  0.25000000  0.43311743  0.75139373  1.0
  Na  Na3  1  0.75000000  0.91264022  0.11678578  1.0
  Cl  Cl4  1  0.25000000  0.47169129  0.93064108  1.0
  Cl  Cl5  1  0.75000000  0.82889887  0.23766345  1.0
  Cl  Cl6  1  0.25000000  0.33322547  0.57158416  1.0
  Cl  Cl7  1  0.75000000  0.52554429  0.84716403  1.0
