# generated using pymatgen
data_NaCl
_symmetry_space_group_name_H-M   'P 1'
_cell_length_a   6.02880065
_cell_length_b   21.04460854
_cell_length_c   2.57796752
_cell_angle_alpha   90.00000000
_cell_angle_beta   86.59907612
_cell_angle_gamma   90.00000000
_symmetry_Int_Tables_number   1
_chemical_formula_structural   NaCl
_chemical_formula_sum   'Na4 Cl4'
_cell_volume   326.50038214
_cell_formula_units_Z   4
loop_
 _symmetry_equiv_pos_site_id
 _symmetry_equiv_pos_as_xyz
  1  'x, y, z'
loop_
 _atom_site_type_symbol
 _atom_site_label
 _atom_site_symmetry_multiplicity
 _atom_site_fract_x
 _atom_site_fract_y
 _atom_site_fract_z
 _atom_site_occupancy
  Na  Na0  1  0.29969313  0.80218558  0.00011565  1.0
  Na  Na1  1  0.83346406  0.44501827  0.62218097  1.0
  Na  Na2  1  0.66864996  0.78790550  0.65008692  1.0
  Na  Na3  1  0.22824784  0.32049666  0.07002906  1.0
  Cl  Cl4  1  0.41167371  0.51127131  0.95773410  1.0
  Cl  Cl5  1  0.31734141  0.49594988  0.49599704  1.0
  Cl  Cl6  1  0.48318550  0.74932127  0.57976282  1.0
  Cl  Cl7  1  0.73574599  0.07871090  0.74250259  1.0
