# generated using pymatgen
data_NaCl
_symmetry_space_group_name_H-M   'P 1'
_cell_length_a   4.38741582
_cell_length_b   5.46476271
_cell_length_c   7.19898254
_cell_angle_alpha   90.00000000
_cell_angle_beta   90.00000000
_cell_angle_gamma   90.00000000
_symmetry_Int_Tables_number   1
_chemical_formula_structural   NaCl
_chemical_formula_sum   'Na4 Cl4'
_cell_volume   172.60414703
_cell_formula_units_Z   4
loop_
 _symmetry_equiv_pos_site_id
 _symmetry_equiv_pos_as_xyz
  1  'x, y, z'
loop_
 _atom_site_type_symbol
 _atom_site_label
 _atom_site_symmetry_multiplicity
 _atom_site_fract_x
 _atom_site_fract_y
 _atom_site_fract_z
 _atom_site_occupancy
  Na  Na0  1  0.27499493  0.92660628  0.11702363  1.0
  Na  Na1  1  0.15805702  0.44038657  0.56408221  1.0
  Na  Na2  1  0.15078348  0.03843355  0.31234942  1.0
  Na  Na3  1  0.43798039  0.67832267  0.62550735  1.0
  Cl  Cl4  1  0.00000000  0.00000000  0.99961782  1.0
  Cl  Cl5  1  0.00000000  0.50000000  0.87739127  1.0
  Cl  Cl6  1  0.00000000  0.00000000  0.69982228  1.0
  Cl  Cl7  1  0.00000000  0.50000000  0.25310340  1.0
