# generated using pymatgen
data_NaCl
_symmetry_space_group_name_H-M   'P 1'
_cell_length_a   7.63223648
_cell_length_b   4.65444818
_cell_length_c   6.71336748
_cell_angle_alpha   90.00000000
_cell_angle_beta   90.00000000
_cell_angle_gamma   90.00000000
_symmetry_Int_Tables_number   1
_chemical_formula_structural   NaCl
_chemical_formula_sum   'Na4 Cl4'
_cell_volume   238.48465394
_cell_formula_units_Z   4
loop_
 _symmetry_equiv_pos_site_id
 _symmetry_equiv_pos_as_xyz
  1  'x, y, z'
loop_
 _atom_site_type_symbol
 _atom_site_label
 _atom_site_symmetry_multiplicity
 _atom_site_fract_x
 _atom_site_fract_y
 _atom_site_fract_z
 _atom_site_occupancy
  Na  Na0  1  0.22090168  0.82128819  0.18495480  1.0
  Na  Na1  1  0.05635307  0.08493035  0.06555873  1.0
  Na  Na2  1  0.75575369  0.55970413  0.60733752  1.0
  Na  Na3  1  0.20466719  0.75081858  0.60628820  1.0
  Cl  Cl4  1  0.46661068  0.51906573  0.90793276  1.0
  Cl  Cl5  1  0.55793859  0.90819902  0.85609485  1.0
  Cl  Cl6  1  0.42941235  0.49665810  0.60532158  1.0
  Cl  Cl7  1  0.14076522  0.51251329  0.32807612  1.0
