# generated using pymatgen
data_NaCl
_symmetry_space_group_name_H-M   'P 1'
_cell_length_a   6.64293273
_cell_length_b   6.23249619
_cell_length_c   9.03166638
_cell_angle_alpha   90.00000000
_cell_angle_beta   90.00000000
_cell_angle_gamma   90.00000000
_symmetry_Int_Tables_number   1
_chemical_formula_structural   NaCl
_chemical_formula_sum   'Na4 Cl4'
_cell_volume   373.92952951
_cell_formula_units_Z   4
loop_
 _symmetry_equiv_pos_site_id
 _symmetry_equiv_pos_as_xyz
  1  'x, y, z'
loop_
 _atom_site_type_symbol
 _atom_site_label
 _atom_site_symmetry_multiplicity
 _atom_site_fract_x
 _atom_site_fract_y
 _atom_site_fract_z
 _atom_site_occupancy
  Na  Na0  1  0.21535335  0.76190242  0.52454583  1.0
  Na  Na1  1  0.14458220  0.28101009  0.04624791  1.0
  Na  Na2  1  0.70823742  0.07813668  0.67955417  1.0
  Na  Na3  1  0.75832529  0.60640638  0.52971413  1.0
  Cl  Cl4  1  0.35845657  0.53986780  0.92885518  1.0
  Cl  Cl5  1  0.65086855  0.77164914  0.86935653  1.0
  Cl  Cl6  1  0.42293088  0.17948076  0.68287953  1.0
  Cl  Cl7  1  0.21564205  0.02781710  0.29905134  1.0
