# generated using pymatgen
data_NaCl
_symmetry_space_group_name_H-M   'P 1'
_cell_length_a   5.36742263
_cell_length_b   5.36742263
_cell_length_c   4.94691031
_cell_angle_alpha   90.00000000
_cell_angle_beta   90.00000000
_cell_angle_gamma   90.00000000
_symmetry_Int_Tables_number   1
_chemical_formula_structural   NaCl
_chemical_formula_sum   'Na4 Cl4'
_cell_volume   142.51665558
_cell_formula_units_Z   4
loop_
 _symmetry_equiv_pos_site_id
 _symmetry_equiv_pos_as_xyz
  1  'x, y, z'
loop_
 _atom_site_type_symbol
 _atom_site_label
 _atom_site_symmetry_multiplicity
 _atom_site_fract_x
 _atom_site_fract_y
 _atom_site_fract_z
 _atom_site_occupancy
  Na  Na0  1  0.21050918  0.21050918  0.62500000  1.0
  Na  Na1  1  0.22784561  0.22784561  0.12500000  1.0
  Na  Na2  1  0.71529228  0.28470772  0.37500000  1.0
  Na  Na3  1  0.78897773  0.21102227  0.87500000  1.0
  Cl  Cl4  1  0.50000000  0.29760087  0.00000000  1.0
  Cl  Cl5  1  0.50000000  0.75472524  0.50000000  1.0
  Cl  Cl6  1  0.61951510  0.50000000  0.75000000  1.0
  Cl  Cl7  1  0.54739022  0.50000000  0.25000000  1.0
