# generated using pymatgen
data_NaCl
_symmetry_space_group_name_H-M   'P 1'
_cell_length_a   6.52744645
_cell_length_b   5.15370620
_cell_length_c   8.87486822
_cell_angle_alpha   90.00000000
_cell_angle_beta   90.00000000
_cell_angle_gamma   90.00000000
_symmetry_Int_Tables_number   1
_chemical_formula_structural   NaCl
_chemical_formula_sum   'Na4 Cl4'
_cell_volume   298.55537035
_cell_formula_units_Z   4
loop_
 _symmetry_equiv_pos_site_id
 _symmetry_equiv_pos_as_xyz
  1  'x, y, z'
loop_
 _atom_site_type_symbol
 _atom_site_label
 _atom_site_symmetry_multiplicity
 _atom_site_fract_x
 _atom_site_fract_y
 _atom_site_fract_z
 _atom_site_occupancy
  Na  Na0  1  0.37856220  0.73957174  0.00003756  1.0
  Na  Na1  1  0.18693807  0.28835779  0.25991554  1.0
  Na  Na2  1  0.31972937  0.38149987  0.92744085  1.0
  Na  Na3  1  0.28178657  0.39458205  0.38344438  1.0
  Cl  Cl4  1  0.00000000  0.52858188  0.73819174  1.0
  Cl  Cl5  1  0.00000000  0.82973125  0.00282616  1.0
  Cl  Cl6  1  0.50000000  0.28338971  0.67361871  1.0
  Cl  Cl7  1  0.50000000  0.30872971  0.45904886  1.0
