# generated using pymatgen
data_NaCl
_symmetry_space_group_name_H-M   'P 1'
_cell_length_a   6.73938900
_cell_length_b   6.77715087
_cell_length_c   7.52059432
_cell_angle_alpha   66.10984818
_cell_angle_beta   93.60116172
_cell_angle_gamma   147.23153506
_symmetry_Int_Tables_number   1
_chemical_formula_structural   NaCl
_chemical_formula_sum   'Na4 Cl4'
_cell_volume   140.69356881
_cell_formula_units_Z   4
loop_
 _symmetry_equiv_pos_site_id
 _symmetry_equiv_pos_as_xyz
  1  'x, y, z'
loop_
 _atom_site_type_symbol
 _atom_site_label
 _atom_site_symmetry_multiplicity
 _atom_site_fract_x
 _atom_site_fract_y
 _atom_site_fract_z
 _atom_site_occupancy
  Na  Na0  1  0.00000000  0.00000000  0.00000000  1.0
  Na  Na1  1  0.50000000  0.50000000  0.50000000  1.0
  Na  Na2  1  0.20223196  0.47603102  0.47283620  1.0
  Na  Na3  1  0.25438270  0.87702327  0.94322637  1.0
  Cl  Cl4  1  0.00000000  0.00000000  0.50000000  1.0
  Cl  Cl5  1  0.00000000  0.50000000  0.00000000  1.0
  Cl  Cl6  1  0.00000000  0.50000000  0.50000000  1.0
  Cl  Cl7  1  0.50000000  0.50000000  0.00000000  1.0
