# generated using pymatgen
data_NaCl
_symmetry_space_group_name_H-M   'P 1'
_cell_length_a   6.35656463
_cell_length_b   6.01716847
_cell_length_c   5.84699766
_cell_angle_alpha   90.00000000
_cell_angle_beta   90.00000000
_cell_angle_gamma   90.00000000
_symmetry_Int_Tables_number   1
_chemical_formula_structural   NaCl
_chemical_formula_sum   'Na4 Cl4'
_cell_volume   223.63900851
_cell_formula_units_Z   4
loop_
 _symmetry_equiv_pos_site_id
 _symmetry_equiv_pos_as_xyz
  1  'x, y, z'
loop_
 _atom_site_type_symbol
 _atom_site_label
 _atom_site_symmetry_multiplicity
 _atom_site_fract_x
 _atom_site_fract_y
 _atom_site_fract_z
 _atom_site_occupancy
  Na  Na0  1  0.20118715  0.00000000  0.04753035  1.0
  Na  Na1  1  0.16331976  0.00000000  0.47103771  1.0
  Na  Na2  1  0.69464137  0.50000000  0.60946556  1.0
  Na  Na3  1  0.78342756  0.50000000  0.25186961  1.0
  Cl  Cl4  1  0.00000000  0.00000000  0.92360729  1.0
  Cl  Cl5  1  0.50000000  0.50000000  0.34863913  1.0
  Cl  Cl6  1  0.00000000  0.50000000  0.43941721  1.0
  Cl  Cl7  1  0.50000000  0.00000000  0.77500857  1.0
