# generated using pymatgen
data_NaCl
_symmetry_space_group_name_H-M   'P 1'
_cell_length_a   5.28359791
_cell_length_b   5.72284386
_cell_length_c   9.35519297
_cell_angle_alpha   90.00000000
_cell_angle_beta   84.57030971
_cell_angle_gamma   90.00000000
_symmetry_Int_Tables_number   1
_chemical_formula_structural   NaCl
_chemical_formula_sum   'Na4 Cl4'
_cell_volume   281.60565430
_cell_formula_units_Z   4
loop_
 _symmetry_equiv_pos_site_id
 _symmetry_equiv_pos_as_xyz
  1  'x, y, z'
loop_
 _atom_site_type_symbol
 _atom_site_label
 _atom_site_symmetry_multiplicity
 _atom_site_fract_x
 _atom_site_fract_y
 _atom_site_fract_z
 _atom_site_occupancy
  Na  Na0  1  0.00000000  0.77203367  0.00000000  1.0
  Na  Na1  1  0.00000000  0.30055987  0.00000000  1.0
  Na  Na2  1  0.50000000  0.86727864  0.00000000  1.0
  Na  Na3  1  0.50000000  0.38268958  0.00000000  1.0
  Cl  Cl4  1  0.35892972  0.00000000  0.98107406  1.0
  Cl  Cl5  1  0.69243926  0.00000000  0.62722994  1.0
  Cl  Cl6  1  0.38128497  0.50000000  0.65865358  1.0
  Cl  Cl7  1  0.28071593  0.50000000  0.15411449  1.0
