# generated using pymatgen
data_NaCl
_symmetry_space_group_name_H-M   'P 1'
_cell_length_a   7.84568127
_cell_length_b   3.78613063
_cell_length_c   8.74235858
_cell_angle_alpha   90.00000000
_cell_angle_beta   90.00000000
_cell_angle_gamma   90.00000000
_symmetry_Int_Tables_number   1
_chemical_formula_structural   NaCl
_chemical_formula_sum   'Na4 Cl4'
_cell_volume   259.68978733
_cell_formula_units_Z   4
loop_
 _symmetry_equiv_pos_site_id
 _symmetry_equiv_pos_as_xyz
  1  'x, y, z'
loop_
 _atom_site_type_symbol
 _atom_site_label
 _atom_site_symmetry_multiplicity
 _atom_site_fract_x
 _atom_site_fract_y
 _atom_site_fract_z
 _atom_site_occupancy
  Na  Na0  1  0.25000000  0.61771174  0.30511296  1.0
  Na  Na1  1  0.75000000  0.52898302  0.32250057  1.0
  Na  Na2  1  0.25000000  0.82107956  0.79328656  1.0
  Na  Na3  1  0.75000000  0.25862216  0.89692390  1.0
  Cl  Cl4  1  0.00000000  0.00000000  0.99896953  1.0
  Cl  Cl5  1  0.50000000  0.00000000  0.48664034  1.0
  Cl  Cl6  1  0.00000000  0.50000000  0.10855269  1.0
  Cl  Cl7  1  0.50000000  0.50000000  0.97762923  1.0
