# generated using pymatgen
data_NaCl
_symmetry_space_group_name_H-M   'P 1'
_cell_length_a   5.36486268
_cell_length_b   5.63767533
_cell_length_c   7.91842443
_cell_angle_alpha   90.00000000
_cell_angle_beta   88.19564625
_cell_angle_gamma   90.00000000
_symmetry_Int_Tables_number   1
_chemical_formula_structural   NaCl
_chemical_formula_sum   'Na4 Cl4'
_cell_volume   239.37680093
_cell_formula_units_Z   4
loop_
 _symmetry_equiv_pos_site_id
 _symmetry_equiv_pos_as_xyz
  1  'x, y, z'
loop_
 _atom_site_type_symbol
 _atom_site_label
 _atom_site_symmetry_multiplicity
 _atom_site_fract_x
 _atom_site_fract_y
 _atom_site_fract_z
 _atom_site_occupancy
  Na  Na0  1  0.19318743  0.75041595  0.94257472  1.0
  Na  Na1  1  0.20298955  0.08120787  0.50242698  1.0
  Na  Na2  1  0.20954507  0.35739666  0.64488674  1.0
  Na  Na3  1  0.66540229  0.65994920  0.81301506  1.0
  Cl  Cl4  1  0.32197754  0.52370460  0.95362069  1.0
  Cl  Cl5  1  0.76597605  0.70461300  0.99971789  1.0
  Cl  Cl6  1  0.90142325  0.40683277  0.77238123  1.0
  Cl  Cl7  1  0.69604554  0.83538954  0.19246787  1.0
