# generated using pymatgen
data_NaCl
_symmetry_space_group_name_H-M   'P 1'
_cell_length_a   4.09630553
_cell_length_b   7.05615201
_cell_length_c   4.16263848
_cell_angle_alpha   90.00000000
_cell_angle_beta   93.05735428
_cell_angle_gamma   90.00000000
_symmetry_Int_Tables_number   1
_chemical_formula_structural   NaCl
_chemical_formula_sum   'Na4 Cl4'
_cell_volume   120.14629117
_cell_formula_units_Z   4
loop_
 _symmetry_equiv_pos_site_id
 _symmetry_equiv_pos_as_xyz
  1  'x, y, z'
loop_
 _atom_site_type_symbol
 _atom_site_label
 _atom_site_symmetry_multiplicity
 _atom_site_fract_x
 _atom_site_fract_y
 _atom_site_fract_z
 _atom_site_occupancy
  Na  Na0  1  0.36878280  0.00000000  0.02125641  1.0
  Na  Na1  1  0.90440439  0.50000000  0.71937105  1.0
  Na  Na2  1  0.28301754  0.22120342  0.52408075  1.0
  Na  Na3  1  0.75812193  0.82789582  0.00075187  1.0
  Cl  Cl4  1  0.43627801  0.50000000  0.88895136  1.0
  Cl  Cl5  1  0.38556998  0.50000000  0.40766287  1.0
  Cl  Cl6  1  0.74915420  0.37000955  0.59673921  1.0
  Cl  Cl7  1  0.30468616  0.65952789  0.90797996  1.0
