# generated using pymatgen
data_NaCl
_symmetry_space_group_name_H-M   'P 1'
_cell_length_a   6.71512102
_cell_length_b   7.94202501
_cell_length_c   7.94878069
_cell_angle_alpha   90.00000000
_cell_angle_beta   61.48064554
_cell_angle_gamma   90.00000000
_symmetry_Int_Tables_number   1
_chemical_formula_structural   NaCl
_chemical_formula_sum   'Na4 Cl4'
_cell_volume   372.48126036
_cell_formula_units_Z   4
loop_
 _symmetry_equiv_pos_site_id
 _symmetry_equiv_pos_as_xyz
  1  'x, y, z'
loop_
 _atom_site_type_symbol
 _atom_site_label
 _atom_site_symmetry_multiplicity
 _atom_site_fract_x
 _atom_site_fract_y
 _atom_site_fract_z
 _atom_site_occupancy
  Na  Na0  1  0.09164211  0.69257222  0.61699481  1.0
  Na  Na1  1  0.17334027  0.36578969  0.87829932  1.0
  Na  Na2  1  0.82037103  0.36272727  0.52185895  1.0
  Na  Na3  1  0.86834889  0.16738827  0.62252153  1.0
  Cl  Cl4  1  0.00000000  0.00000000  0.00000000  1.0
  Cl  Cl5  1  0.00000000  0.50000000  0.50000000  1.0
  Cl  Cl6  1  0.50000000  0.00000000  0.00000000  1.0
  Cl  Cl7  1  0.50000000  0.50000000  0.50000000  1.0
