# generated using pymatgen
data_NaCl
_symmetry_space_group_name_H-M   'P 1'
_cell_length_a   6.99407080
_cell_length_b   3.68323321
_cell_length_c   7.49133568
_cell_angle_alpha   90.00000000
_cell_angle_beta   90.00000000
_cell_angle_gamma   90.00000000
_symmetry_Int_Tables_number   1
_chemical_formula_structural   NaCl
_chemical_formula_sum   'Na4 Cl4'
_cell_volume   192.98275407
_cell_formula_units_Z   4
loop_
 _symmetry_equiv_pos_site_id
 _symmetry_equiv_pos_as_xyz
  1  'x, y, z'
loop_
 _atom_site_type_symbol
 _atom_site_label
 _atom_site_symmetry_multiplicity
 _atom_site_fract_x
 _atom_site_fract_y
 _atom_site_fract_z
 _atom_site_occupancy
  Na  Na0  1  0.50000000  0.00000000  0.12076617  1.0
  Na  Na1  1  0.50000000  0.50000000  0.05933407  1.0
  Na  Na2  1  0.50000000  0.00000000  0.62306011  1.0
  Na  Na3  1  0.50000000  0.50000000  0.74804296  1.0
  Cl  Cl4  1  0.03726102  0.56814003  0.90070014  1.0
  Cl  Cl5  1  0.64104101  0.76390417  0.39816880  1.0
  Cl  Cl6  1  0.94025336  0.17096780  0.99863280  1.0
  Cl  Cl7  1  0.68344014  0.93553744  0.10404992  1.0
