# generated using pymatgen
data_NaCl
_symmetry_space_group_name_H-M   'P 1'
_cell_length_a   4.07265228
_cell_length_b   6.59602264
_cell_length_c   5.93661958
_cell_angle_alpha   90.00000000
_cell_angle_beta   57.61914716
_cell_angle_gamma   90.00000000
_symmetry_Int_Tables_number   1
_chemical_formula_structural   NaCl
_chemical_formula_sum   'Na4 Cl4'
_cell_volume   134.67962960
_cell_formula_units_Z   4
loop_
 _symmetry_equiv_pos_site_id
 _symmetry_equiv_pos_as_xyz
  1  'x, y, z'
loop_
 _atom_site_type_symbol
 _atom_site_label
 _atom_site_symmetry_multiplicity
 _atom_site_fract_x
 _atom_site_fract_y
 _atom_site_fract_z
 _atom_site_occupancy
  Na  Na0  1  0.05495325  0.64413031  0.06371604  1.0
  Na  Na1  1  0.18841930  0.23157400  0.37002075  1.0
  Na  Na2  1  0.87268311  0.44605211  0.44356354  1.0
  Na  Na3  1  0.85437898  0.13371979  0.00024550  1.0
  Cl  Cl4  1  0.49742027  0.50725079  0.87540102  1.0
  Cl  Cl5  1  0.55815157  0.60071975  0.67937544  1.0
  Cl  Cl6  1  0.12799911  0.45584489  0.58380866  1.0
  Cl  Cl7  1  0.22313963  0.89519568  0.91099559  1.0
