# generated using pymatgen
data_NaCl
_symmetry_space_group_name_H-M   'P 1'
_cell_length_a   6.82712556
_cell_length_b   6.82712556
_cell_length_c   2.01038083
_cell_angle_alpha   90.00000000
_cell_angle_beta   90.00000000
_cell_angle_gamma   90.00000000
_symmetry_Int_Tables_number   1
_chemical_formula_structural   NaCl
_chemical_formula_sum   'Na4 Cl4'
_cell_volume   93.70313361
_cell_formula_units_Z   4
loop_
 _symmetry_equiv_pos_site_id
 _symmetry_equiv_pos_as_xyz
  1  'x, y, z'
loop_
 _atom_site_type_symbol
 _atom_site_label
 _atom_site_symmetry_multiplicity
 _atom_site_fract_x
 _atom_site_fract_y
 _atom_site_fract_z
 _atom_site_occupancy
  Na  Na0  1  0.35423771  0.84671446  0.05778318  1.0
  Na  Na1  1  0.15591970  0.29141731  0.44211965  1.0
  Na  Na2  1  0.76618119  0.22310801  0.89142038  1.0
  Na  Na3  1  0.03085252  0.48348062  0.07153049  1.0
  Cl  Cl4  1  0.39764231  0.54067559  0.91142697  1.0
  Cl  Cl5  1  0.84938752  0.88853024  0.51672491  1.0
  Cl  Cl6  1  0.58998660  0.86651476  0.91978701  1.0
  Cl  Cl7  1  0.38389646  0.69363941  0.65508925  1.0
