# generated using pymatgen
data_NaCl
_symmetry_space_group_name_H-M   'P 1'
_cell_length_a   5.55322375
_cell_length_b   7.68168029
_cell_length_c   5.92251682
_cell_angle_alpha   90.00000000
_cell_angle_beta   80.32611612
_cell_angle_gamma   90.00000000
_symmetry_Int_Tables_number   1
_chemical_formula_structural   NaCl
_chemical_formula_sum   'Na4 Cl4'
_cell_volume   249.05070708
_cell_formula_units_Z   4
loop_
 _symmetry_equiv_pos_site_id
 _symmetry_equiv_pos_as_xyz
  1  'x, y, z'
loop_
 _atom_site_type_symbol
 _atom_site_label
 _atom_site_symmetry_multiplicity
 _atom_site_fract_x
 _atom_site_fract_y
 _atom_site_fract_z
 _atom_site_occupancy
  Na  Na0  1  0.45424203  0.85560033  0.04545369  1.0
  Na  Na1  1  0.22770606  0.29751585  0.32960791  1.0
  Na  Na2  1  0.25835760  0.46231223  0.57342864  1.0
  Na  Na3  1  0.26498029  0.60610032  0.88139447  1.0
  Cl  Cl4  1  0.40481609  0.44227187  0.96005165  1.0
  Cl  Cl5  1  0.53038018  0.66380104  0.53076656  1.0
  Cl  Cl6  1  0.76485905  0.39324947  0.66752509  1.0
  Cl  Cl7  1  0.66192413  0.97729654  0.19880388  1.0
