# generated using pymatgen
data_NaCl
_symmetry_space_group_name_H-M   'P 1'
_cell_length_a   3.74404140
_cell_length_b   7.46550358
_cell_length_c   11.21437406
_cell_angle_alpha   90.00000000
_cell_angle_beta   86.64165639
_cell_angle_gamma   90.00000000
_symmetry_Int_Tables_number   1
_chemical_formula_structural   NaCl
_chemical_formula_sum   'Na4 Cl4'
_cell_volume   312.91640038
_cell_formula_units_Z   4
loop_
 _symmetry_equiv_pos_site_id
 _symmetry_equiv_pos_as_xyz
  1  'x, y, z'
loop_
 _atom_site_type_symbol
 _atom_site_label
 _atom_site_symmetry_multiplicity
 _atom_site_fract_x
 _atom_site_fract_y
 _atom_site_fract_z
 _atom_site_occupancy
  Na  Na0  1  0.18144781  0.90594547  0.06931049  1.0
  Na  Na1  1  0.59312984  0.31390442  0.80747396  1.0
  Na  Na2  1  0.32110526  0.74259221  0.61138684  1.0
  Na  Na3  1  0.87487438  0.32575647  0.00153638  1.0
  Cl  Cl4  1  0.57169299  0.00000000  0.88368273  1.0
  Cl  Cl5  1  0.78950694  0.50000000  0.29474772  1.0
  Cl  Cl6  1  0.84806438  0.00000000  0.50143593  1.0
  Cl  Cl7  1  0.64128488  0.50000000  0.70486941  1.0
