# generated using pymatgen
data_NaCl
_symmetry_space_group_name_H-M   'P 1'
_cell_length_a   6.09860851
_cell_length_b   6.09860851
_cell_length_c   8.45993398
_cell_angle_alpha   90.00000000
_cell_angle_beta   90.00000000
_cell_angle_gamma   90.00000000
_symmetry_Int_Tables_number   1
_chemical_formula_structural   NaCl
_chemical_formula_sum   'Na4 Cl4'
_cell_volume   314.65054243
_cell_formula_units_Z   4
loop_
 _symmetry_equiv_pos_site_id
 _symmetry_equiv_pos_as_xyz
  1  'x, y, z'
loop_
 _atom_site_type_symbol
 _atom_site_label
 _atom_site_symmetry_multiplicity
 _atom_site_fract_x
 _atom_site_fract_y
 _atom_site_fract_z
 _atom_site_occupancy
  Na  Na0  1  0.30210228  0.80915050  0.01920453  1.0
  Na  Na1  1  0.13174076  0.27866612  0.02939296  1.0
  Na  Na2  1  0.67445611  0.21774056  0.84917619  1.0
  Na  Na3  1  0.14631046  0.79136646  0.80735934  1.0
  Cl  Cl4  1  0.33369336  0.53674193  0.93623189  1.0
  Cl  Cl5  1  0.59111238  0.71445323  0.87012736  1.0
  Cl  Cl6  1  0.75815425  0.84022655  0.90479070  1.0
  Cl  Cl7  1  0.22899994  0.76109879  0.54598052  1.0
