# generated using pymatgen
data_NaCl
_symmetry_space_group_name_H-M   'P 1'
_cell_length_a   3.32610026
_cell_length_b   4.20779862
_cell_length_c   7.05013566
_cell_angle_alpha   90.00000000
_cell_angle_beta   88.82310737
_cell_angle_gamma   90.00000000
_symmetry_Int_Tables_number   1
_chemical_formula_structural   NaCl
_chemical_formula_sum   'Na4 Cl4'
_cell_volume   98.64978249
_cell_formula_units_Z   4
loop_
 _symmetry_equiv_pos_site_id
 _symmetry_equiv_pos_as_xyz
  1  'x, y, z'
loop_
 _atom_site_type_symbol
 _atom_site_label
 _atom_site_symmetry_multiplicity
 _atom_site_fract_x
 _atom_site_fract_y
 _atom_site_fract_z
 _atom_site_occupancy
  Na  Na0  1  0.21668123  0.66481684  0.08116367  1.0
  Na  Na1  1  0.20577030  0.31273515  0.17927102  1.0
  Na  Na2  1  0.87949786  0.32366833  0.34168420  1.0
  Na  Na3  1  0.85367023  0.38339873  0.06813032  1.0
  Cl  Cl4  1  0.50000000  0.00000000  0.00000000  1.0
  Cl  Cl5  1  0.50000000  0.50000000  0.00000000  1.0
  Cl  Cl6  1  0.91707056  0.25000000  0.71472548  1.0
  Cl  Cl7  1  0.90182723  0.75000000  0.12986002  1.0
