# generated using pymatgen
data_NaCl
_symmetry_space_group_name_H-M   'P 1'
_cell_length_a   5.81899275
_cell_length_b   5.18716907
_cell_length_c   7.08705736
_cell_angle_alpha   90.00000000
_cell_angle_beta   48.96107247
_cell_angle_gamma   90.00000000
_symmetry_Int_Tables_number   1
_chemical_formula_structural   NaCl
_chemical_formula_sum   'Na4 Cl4'
_cell_volume   161.34940111
_cell_formula_units_Z   4
loop_
 _symmetry_equiv_pos_site_id
 _symmetry_equiv_pos_as_xyz
  1  'x, y, z'
loop_
 _atom_site_type_symbol
 _atom_site_label
 _atom_site_symmetry_multiplicity
 _atom_site_fract_x
 _atom_site_fract_y
 _atom_site_fract_z
 _atom_site_occupancy
  Na  Na0  1  0.25272216  0.79746927  0.04645251  1.0
  Na  Na1  1  0.81732033  0.18469305  0.17697942  1.0
  Na  Na2  1  0.69426937  0.84690083  0.60181574  1.0
  Na  Na3  1  0.83291549  0.50059278  0.60557699  1.0
  Cl  Cl4  1  0.42998063  0.55580659  0.91314310  1.0
  Cl  Cl5  1  0.17456600  0.83537241  0.88395534  1.0
  Cl  Cl6  1  0.37005876  0.81392008  0.54945236  1.0
  Cl  Cl7  1  0.53096193  0.15636265  0.23907594  1.0
