# generated using pymatgen
data_NaCl
_symmetry_space_group_name_H-M   'P 1'
_cell_length_a   3.90329460
_cell_length_b   7.17365242
_cell_length_c   8.50068550
_cell_angle_alpha   90.00000000
_cell_angle_beta   83.94656350
_cell_angle_gamma   90.00000000
_symmetry_Int_Tables_number   1
_chemical_formula_structural   NaCl
_chemical_formula_sum   'Na4 Cl4'
_cell_volume   236.69942141
_cell_formula_units_Z   4
loop_
 _symmetry_equiv_pos_site_id
 _symmetry_equiv_pos_as_xyz
  1  'x, y, z'
loop_
 _atom_site_type_symbol
 _atom_site_label
 _atom_site_symmetry_multiplicity
 _atom_site_fract_x
 _atom_site_fract_y
 _atom_site_fract_z
 _atom_site_occupancy
  Na  Na0  1  0.23799671  0.89647669  0.10945748  1.0
  Na  Na1  1  0.87319176  0.28716685  0.32473332  1.0
  Na  Na2  1  0.68837757  0.90278251  0.36055491  1.0
  Na  Na3  1  0.26322183  0.38152179  0.67439655  1.0
  Cl  Cl4  1  0.50008338  0.46780514  0.94821824  1.0
  Cl  Cl5  1  0.46436270  0.80755839  0.73870865  1.0
  Cl  Cl6  1  0.28688379  0.81038849  0.61316067  1.0
  Cl  Cl7  1  0.73178016  0.75132309  0.37063264  1.0
