# generated using pymatgen
data_NaCl
_symmetry_space_group_name_H-M   'P 1'
_cell_length_a   4.06637916
_cell_length_b   6.72750527
_cell_length_c   5.97607829
_cell_angle_alpha   90.00000000
_cell_angle_beta   90.00000000
_cell_angle_gamma   90.00000000
_symmetry_Int_Tables_number   1
_chemical_formula_structural   NaCl
_chemical_formula_sum   'Na4 Cl4'
_cell_volume   163.48510703
_cell_formula_units_Z   4
loop_
 _symmetry_equiv_pos_site_id
 _symmetry_equiv_pos_as_xyz
  1  'x, y, z'
loop_
 _atom_site_type_symbol
 _atom_site_label
 _atom_site_symmetry_multiplicity
 _atom_site_fract_x
 _atom_site_fract_y
 _atom_site_fract_z
 _atom_site_occupancy
  Na  Na0  1  0.50000000  0.65537292  0.03322099  1.0
  Na  Na1  1  0.50000000  0.32631342  0.19171909  1.0
  Na  Na2  1  0.50000000  0.38854830  0.49934851  1.0
  Na  Na3  1  0.50000000  0.91322112  0.57503485  1.0
  Cl  Cl4  1  0.26108095  0.46209041  0.91483087  1.0
  Cl  Cl5  1  0.55861963  0.85792763  0.92492768  1.0
  Cl  Cl6  1  0.70593027  0.58832901  0.20483983  1.0
  Cl  Cl7  1  0.84039625  0.42869832  0.78016728  1.0
