# generated using pymatgen
data_NaCl
_symmetry_space_group_name_H-M   'P 1'
_cell_length_a   5.50391861
_cell_length_b   5.50391861
_cell_length_c   5.02030867
_cell_angle_alpha   90.00000000
_cell_angle_beta   90.00000000
_cell_angle_gamma   90.00000000
_symmetry_Int_Tables_number   1
_chemical_formula_structural   NaCl
_chemical_formula_sum   'Na4 Cl4'
_cell_volume   152.08081331
_cell_formula_units_Z   4
loop_
 _symmetry_equiv_pos_site_id
 _symmetry_equiv_pos_as_xyz
  1  'x, y, z'
loop_
 _atom_site_type_symbol
 _atom_site_label
 _atom_site_symmetry_multiplicity
 _atom_site_fract_x
 _atom_site_fract_y
 _atom_site_fract_z
 _atom_site_occupancy
  Na  Na0  1  0.31232715  0.80469741  0.22672041  1.0
  Na  Na1  1  0.00143966  0.35254269  0.11391935  1.0
  Na  Na2  1  0.56383033  0.22762994  0.82792841  1.0
  Na  Na3  1  0.64478959  0.77790153  0.81514345  1.0
  Cl  Cl4  1  0.31303144  0.58666855  0.80940934  1.0
  Cl  Cl5  1  0.56493160  0.76095774  0.55841813  1.0
  Cl  Cl6  1  0.44965865  0.97680627  0.88630421  1.0
  Cl  Cl7  1  0.22318327  0.93404268  0.52258051  1.0
