# generated using pymatgen
data_NaCl
_symmetry_space_group_name_H-M   'P 1'
_cell_length_a   5.27552446
_cell_length_b   6.73734655
_cell_length_c   6.15660263
_cell_angle_alpha   90.00000000
_cell_angle_beta   90.00000000
_cell_angle_gamma   90.00000000
_symmetry_Int_Tables_number   1
_chemical_formula_structural   NaCl
_chemical_formula_sum   'Na4 Cl4'
_cell_volume   218.82435212
_cell_formula_units_Z   4
loop_
 _symmetry_equiv_pos_site_id
 _symmetry_equiv_pos_as_xyz
  1  'x, y, z'
loop_
 _atom_site_type_symbol
 _atom_site_label
 _atom_site_symmetry_multiplicity
 _atom_site_fract_x
 _atom_site_fract_y
 _atom_site_fract_z
 _atom_site_occupancy
  Na  Na0  1  0.08113641  0.64422073  0.01863416  1.0
  Na  Na1  1  0.21073233  0.15497271  0.28950119  1.0
  Na  Na2  1  0.14787116  0.50551151  0.55816024  1.0
  Na  Na3  1  0.67340419  0.08893306  0.63202118  1.0
  Cl  Cl4  1  0.50226411  0.37121851  0.97970642  1.0
  Cl  Cl5  1  0.64570547  0.95954531  0.92020669  1.0
  Cl  Cl6  1  0.46406305  0.56600335  0.87764963  1.0
  Cl  Cl7  1  0.39967933  0.67824732  0.32601936  1.0
