# generated using pymatgen
data_NaCl
_symmetry_space_group_name_H-M   'P 1'
_cell_length_a   5.75664709
_cell_length_b   4.72680082
_cell_length_c   10.70672595
_cell_angle_alpha   90.00000000
_cell_angle_beta   90.00000000
_cell_angle_gamma   90.00000000
_symmetry_Int_Tables_number   1
_chemical_formula_structural   NaCl
_chemical_formula_sum   'Na4 Cl4'
_cell_volume   291.33562541
_cell_formula_units_Z   4
loop_
 _symmetry_equiv_pos_site_id
 _symmetry_equiv_pos_as_xyz
  1  'x, y, z'
loop_
 _atom_site_type_symbol
 _atom_site_label
 _atom_site_symmetry_multiplicity
 _atom_site_fract_x
 _atom_site_fract_y
 _atom_site_fract_z
 _atom_site_occupancy
  Na  Na0  1  0.34824811  0.80322102  0.92996107  1.0
  Na  Na1  1  0.17934028  0.39982790  0.89368016  1.0
  Na  Na2  1  0.72822176  0.18732417  0.76515644  1.0
  Na  Na3  1  0.60353329  0.52024816  0.59924255  1.0
  Cl  Cl4  1  0.50386329  0.49849751  0.98063558  1.0
  Cl  Cl5  1  0.71829504  0.90113053  0.87021187  1.0
  Cl  Cl6  1  0.48212472  0.20224012  0.63520525  1.0
  Cl  Cl7  1  0.34327593  0.95529402  0.23282911  1.0
