# generated using pymatgen
data_NaCl
_symmetry_space_group_name_H-M   'P 1'
_cell_length_a   3.74120039
_cell_length_b   5.83544967
_cell_length_c   7.19253070
_cell_angle_alpha   90.00000000
_cell_angle_beta   78.25290217
_cell_angle_gamma   90.00000000
_symmetry_Int_Tables_number   1
_chemical_formula_structural   NaCl
_chemical_formula_sum   'Na4 Cl4'
_cell_volume   153.73560501
_cell_formula_units_Z   4
loop_
 _symmetry_equiv_pos_site_id
 _symmetry_equiv_pos_as_xyz
  1  'x, y, z'
loop_
 _atom_site_type_symbol
 _atom_site_label
 _atom_site_symmetry_multiplicity
 _atom_site_fract_x
 _atom_site_fract_y
 _atom_site_fract_z
 _atom_site_occupancy
  Na  Na0  1  0.00000000  0.76012607  0.25000000  1.0
  Na  Na1  1  0.00000000  0.86416586  0.75000000  1.0
  Na  Na2  1  0.50000000  0.27177911  0.25000000  1.0
  Na  Na3  1  0.50000000  0.92346695  0.75000000  1.0
  Cl  Cl4  1  0.29856068  0.51454999  0.90869415  1.0
  Cl  Cl5  1  0.68033016  0.05066217  0.30121509  1.0
  Cl  Cl6  1  0.09334288  0.56457451  0.27735993  1.0
  Cl  Cl7  1  0.14925488  0.65985713  0.75837647  1.0
