# generated using pymatgen
data_NaCl
_symmetry_space_group_name_H-M   'P 1'
_cell_length_a   5.87675815
_cell_length_b   5.87675815
_cell_length_c   9.21610704
_cell_angle_alpha   90.00000000
_cell_angle_beta   90.00000000
_cell_angle_gamma   90.00000000
_symmetry_Int_Tables_number   1
_chemical_formula_structural   NaCl
_chemical_formula_sum   'Na4 Cl4'
_cell_volume   318.29011180
_cell_formula_units_Z   4
loop_
 _symmetry_equiv_pos_site_id
 _symmetry_equiv_pos_as_xyz
  1  'x, y, z'
loop_
 _atom_site_type_symbol
 _atom_site_label
 _atom_site_symmetry_multiplicity
 _atom_site_fract_x
 _atom_site_fract_y
 _atom_site_fract_z
 _atom_site_occupancy
  Na  Na0  1  0.17849268  0.84136200  0.04965870  1.0
  Na  Na1  1  0.08407019  0.33883453  0.01358261  1.0
  Na  Na2  1  0.71684070  0.31525736  0.25022484  1.0
  Na  Na3  1  0.14500359  0.38716486  0.29177729  1.0
  Cl  Cl4  1  0.36010483  0.55506142  0.93975891  1.0
  Cl  Cl5  1  0.71337818  0.74409720  0.88003614  1.0
  Cl  Cl6  1  0.75000203  0.99976068  0.27951535  1.0
  Cl  Cl7  1  0.40269359  0.79183022  0.00732713  1.0
