# generated using pymatgen
data_NaCl
_symmetry_space_group_name_H-M   'P 1'
_cell_length_a   5.29626845
_cell_length_b   5.29626845
_cell_length_c   6.32810622
_cell_angle_alpha   90.00000000
_cell_angle_beta   90.00000000
_cell_angle_gamma   90.00000000
_symmetry_Int_Tables_number   1
_chemical_formula_structural   NaCl
_chemical_formula_sum   'Na4 Cl4'
_cell_volume   177.50628720
_cell_formula_units_Z   4
loop_
 _symmetry_equiv_pos_site_id
 _symmetry_equiv_pos_as_xyz
  1  'x, y, z'
loop_
 _atom_site_type_symbol
 _atom_site_label
 _atom_site_symmetry_multiplicity
 _atom_site_fract_x
 _atom_site_fract_y
 _atom_site_fract_z
 _atom_site_occupancy
  Na  Na0  1  0.02895591  0.02895591  0.19867954  1.0
  Na  Na1  1  0.24543464  0.24543464  0.60533152  1.0
  Na  Na2  1  0.30004535  0.69995465  0.01020583  1.0
  Na  Na3  1  0.34456860  0.65543140  0.68652040  1.0
  Cl  Cl4  1  0.45445537  0.45445537  0.79784226  1.0
  Cl  Cl5  1  0.58619979  0.58619979  0.38182858  1.0
  Cl  Cl6  1  0.63501417  0.36498583  0.24299442  1.0
  Cl  Cl7  1  0.75758529  0.24241471  0.41651858  1.0
