# generated using pymatgen
data_NaCl
_symmetry_space_group_name_H-M   'P 1'
_cell_length_a   8.53981346
_cell_length_b   8.53981346
_cell_length_c   4.64536811
_cell_angle_alpha   90.00000000
_cell_angle_beta   90.00000000
_cell_angle_gamma   90.00000000
_symmetry_Int_Tables_number   1
_chemical_formula_structural   NaCl
_chemical_formula_sum   'Na4 Cl4'
_cell_volume   338.77932839
_cell_formula_units_Z   4
loop_
 _symmetry_equiv_pos_site_id
 _symmetry_equiv_pos_as_xyz
  1  'x, y, z'
loop_
 _atom_site_type_symbol
 _atom_site_label
 _atom_site_symmetry_multiplicity
 _atom_site_fract_x
 _atom_site_fract_y
 _atom_site_fract_z
 _atom_site_occupancy
  Na  Na0  1  0.26633908  0.26633908  0.37500000  1.0
  Na  Na1  1  0.19629093  0.19629093  0.87500000  1.0
  Na  Na2  1  0.71422144  0.28577856  0.62500000  1.0
  Na  Na3  1  0.82593446  0.17406554  0.12500000  1.0
  Cl  Cl4  1  0.52176270  0.52176270  0.37500000  1.0
  Cl  Cl5  1  0.46916768  0.46916768  0.87500000  1.0
  Cl  Cl6  1  0.12103734  0.87896266  0.62500000  1.0
  Cl  Cl7  1  0.09824941  0.90175059  0.12500000  1.0
