# generated using pymatgen
data_NaCl
_symmetry_space_group_name_H-M   'P 1'
_cell_length_a   6.59090236
_cell_length_b   6.35538293
_cell_length_c   4.93094126
_cell_angle_alpha   90.00000000
_cell_angle_beta   93.61904204
_cell_angle_gamma   90.00000000
_symmetry_Int_Tables_number   1
_chemical_formula_structural   NaCl
_chemical_formula_sum   'Na4 Cl4'
_cell_volume   206.13393676
_cell_formula_units_Z   4
loop_
 _symmetry_equiv_pos_site_id
 _symmetry_equiv_pos_as_xyz
  1  'x, y, z'
loop_
 _atom_site_type_symbol
 _atom_site_label
 _atom_site_symmetry_multiplicity
 _atom_site_fract_x
 _atom_site_fract_y
 _atom_site_fract_z
 _atom_site_occupancy
  Na  Na0  1  0.26117627  0.62363831  0.05452688  1.0
  Na  Na1  1  0.58721832  0.05136796  0.66057635  1.0
  Na  Na2  1  0.33919228  0.60416145  0.61761163  1.0
  Na  Na3  1  0.72590189  0.87139065  0.04783231  1.0
  Cl  Cl4  1  0.53759823  0.00000000  0.99957515  1.0
  Cl  Cl5  1  0.46621304  0.50000000  0.35081623  1.0
  Cl  Cl6  1  0.85604596  0.50000000  0.76790516  1.0
  Cl  Cl7  1  0.04998422  0.50000000  0.89666615  1.0
