# generated using pymatgen
data_NaCl
_symmetry_space_group_name_H-M   'P 1'
_cell_length_a   6.68126309
_cell_length_b   6.32753604
_cell_length_c   6.68789587
_cell_angle_alpha   90.00000000
_cell_angle_beta   83.81356320
_cell_angle_gamma   90.00000000
_symmetry_Int_Tables_number   1
_chemical_formula_structural   NaCl
_chemical_formula_sum   'Na4 Cl4'
_cell_volume   281.09051910
_cell_formula_units_Z   4
loop_
 _symmetry_equiv_pos_site_id
 _symmetry_equiv_pos_as_xyz
  1  'x, y, z'
loop_
 _atom_site_type_symbol
 _atom_site_label
 _atom_site_symmetry_multiplicity
 _atom_site_fract_x
 _atom_site_fract_y
 _atom_site_fract_z
 _atom_site_occupancy
  Na  Na0  1  0.32934936  0.84031426  0.12820711  1.0
  Na  Na1  1  0.12147450  0.17781337  0.38209874  1.0
  Na  Na2  1  0.11018638  0.27850477  0.56428173  1.0
  Na  Na3  1  0.44755043  0.62043661  0.99956153  1.0
  Cl  Cl4  1  0.25499533  0.62556531  0.87405191  1.0
  Cl  Cl5  1  0.65348240  0.75180131  0.65209655  1.0
  Cl  Cl6  1  0.85604477  0.33255797  0.47372247  1.0
  Cl  Cl7  1  0.67395542  0.92248986  0.33652945  1.0
