# generated using pymatgen
data_NaCl
_symmetry_space_group_name_H-M   'P 1'
_cell_length_a   5.83553953
_cell_length_b   21.52855553
_cell_length_c   2.46331123
_cell_angle_alpha   90.00000000
_cell_angle_beta   90.00000000
_cell_angle_gamma   90.00000000
_symmetry_Int_Tables_number   1
_chemical_formula_structural   NaCl
_chemical_formula_sum   'Na4 Cl4'
_cell_volume   309.46760484
_cell_formula_units_Z   4
loop_
 _symmetry_equiv_pos_site_id
 _symmetry_equiv_pos_as_xyz
  1  'x, y, z'
loop_
 _atom_site_type_symbol
 _atom_site_label
 _atom_site_symmetry_multiplicity
 _atom_site_fract_x
 _atom_site_fract_y
 _atom_site_fract_z
 _atom_site_occupancy
  Na  Na0  1  0.46913658  0.79468057  0.19469364  1.0
  Na  Na1  1  0.22060125  0.42410121  0.49553007  1.0
  Na  Na2  1  0.25975488  0.20415186  0.08484766  1.0
  Na  Na3  1  0.64266170  0.50001867  0.71216087  1.0
  Cl  Cl4  1  0.00000000  0.00000000  0.91848129  1.0
  Cl  Cl5  1  0.00000000  0.50000000  0.33696659  1.0
  Cl  Cl6  1  0.50000000  0.00000000  0.61756171  1.0
  Cl  Cl7  1  0.50000000  0.50000000  0.36227353  1.0
