# generated using pymatgen
data_NaCl
_symmetry_space_group_name_H-M   'P 1'
_cell_length_a   5.26354432
_cell_length_b   7.44977196
_cell_length_c   6.10177058
_cell_angle_alpha   90.00000000
_cell_angle_beta   90.00000000
_cell_angle_gamma   90.00000000
_symmetry_Int_Tables_number   1
_chemical_formula_structural   NaCl
_chemical_formula_sum   'Na4 Cl4'
_cell_volume   239.26387815
_cell_formula_units_Z   4
loop_
 _symmetry_equiv_pos_site_id
 _symmetry_equiv_pos_as_xyz
  1  'x, y, z'
loop_
 _atom_site_type_symbol
 _atom_site_label
 _atom_site_symmetry_multiplicity
 _atom_site_fract_x
 _atom_site_fract_y
 _atom_site_fract_z
 _atom_site_occupancy
  Na  Na0  1  0.20084102  0.74958982  0.08989392  1.0
  Na  Na1  1  0.51468543  0.23811065  0.25197821  1.0
  Na  Na2  1  0.01651947  0.72203712  0.31552202  1.0
  Na  Na3  1  0.44394028  0.05300488  0.10638109  1.0
  Cl  Cl4  1  0.55023916  0.44394098  0.89702021  1.0
  Cl  Cl5  1  0.16593680  0.98448676  0.81935602  1.0
  Cl  Cl6  1  0.12171866  0.60086889  0.96770978  1.0
  Cl  Cl7  1  0.93141724  0.47558220  0.75925650  1.0
