# generated using pymatgen
data_NaCl
_symmetry_space_group_name_H-M   'P 1'
_cell_length_a   7.34496919
_cell_length_b   9.25974776
_cell_length_c   2.92377633
_cell_angle_alpha   90.00000000
_cell_angle_beta   90.00000000
_cell_angle_gamma   90.00000000
_symmetry_Int_Tables_number   1
_chemical_formula_structural   NaCl
_chemical_formula_sum   'Na4 Cl4'
_cell_volume   198.85351893
_cell_formula_units_Z   4
loop_
 _symmetry_equiv_pos_site_id
 _symmetry_equiv_pos_as_xyz
  1  'x, y, z'
loop_
 _atom_site_type_symbol
 _atom_site_label
 _atom_site_symmetry_multiplicity
 _atom_site_fract_x
 _atom_site_fract_y
 _atom_site_fract_z
 _atom_site_occupancy
  Na  Na0  1  0.21654786  0.77548831  0.11385686  1.0
  Na  Na1  1  0.42393888  0.19576768  0.98703296  1.0
  Na  Na2  1  0.74678426  0.12705284  0.53072065  1.0
  Na  Na3  1  0.70715261  0.56738452  0.67931815  1.0
  Cl  Cl4  1  0.51903940  0.32917485  0.93182426  1.0
  Cl  Cl5  1  0.41986466  0.83917424  0.82567507  1.0
  Cl  Cl6  1  0.40553463  0.09396034  0.67032134  1.0
  Cl  Cl7  1  0.49888319  0.11072396  0.28138388  1.0
