# generated using pymatgen
data_NaCl
_symmetry_space_group_name_H-M   'P 1'
_cell_length_a   5.61614446
_cell_length_b   5.86926698
_cell_length_c   9.55824767
_cell_angle_alpha   90.00000000
_cell_angle_beta   90.00000000
_cell_angle_gamma   90.00000000
_symmetry_Int_Tables_number   1
_chemical_formula_structural   NaCl
_chemical_formula_sum   'Na4 Cl4'
_cell_volume   315.06518435
_cell_formula_units_Z   4
loop_
 _symmetry_equiv_pos_site_id
 _symmetry_equiv_pos_as_xyz
  1  'x, y, z'
loop_
 _atom_site_type_symbol
 _atom_site_label
 _atom_site_symmetry_multiplicity
 _atom_site_fract_x
 _atom_site_fract_y
 _atom_site_fract_z
 _atom_site_occupancy
  Na  Na0  1  0.32209052  0.90061470  0.88245454  1.0
  Na  Na1  1  0.12627080  0.34444329  0.90431715  1.0
  Na  Na2  1  0.22049109  0.63399446  0.26909468  1.0
  Na  Na3  1  0.21929857  0.11790113  0.07721546  1.0
  Cl  Cl4  1  0.00000000  0.54621859  0.99999929  1.0
  Cl  Cl5  1  0.00000000  0.94259458  0.58657500  1.0
  Cl  Cl6  1  0.00000000  0.33765523  0.78316849  1.0
  Cl  Cl7  1  0.00000000  0.57649981  0.11013077  1.0
