# generated using pymatgen
data_NaCl
_symmetry_space_group_name_H-M   'P 1'
_cell_length_a   5.13341852
_cell_length_b   22.05605563
_cell_length_c   2.95808161
_cell_angle_alpha   90.00000000
_cell_angle_beta   90.00000000
_cell_angle_gamma   90.00000000
_symmetry_Int_Tables_number   1
_chemical_formula_structural   NaCl
_chemical_formula_sum   'Na4 Cl4'
_cell_volume   334.92276897
_cell_formula_units_Z   4
loop_
 _symmetry_equiv_pos_site_id
 _symmetry_equiv_pos_as_xyz
  1  'x, y, z'
loop_
 _atom_site_type_symbol
 _atom_site_label
 _atom_site_symmetry_multiplicity
 _atom_site_fract_x
 _atom_site_fract_y
 _atom_site_fract_z
 _atom_site_occupancy
  Na  Na0  1  0.25000000  0.77247660  0.17071164  1.0
  Na  Na1  1  0.75000000  0.47159914  0.39905737  1.0
  Na  Na2  1  0.75000000  0.75972205  0.10870262  1.0
  Na  Na3  1  0.25000000  0.35378848  0.76719427  1.0
  Cl  Cl4  1  0.25000000  0.44387299  0.92655006  1.0
  Cl  Cl5  1  0.75000000  0.80707291  0.39532695  1.0
  Cl  Cl6  1  0.75000000  0.82434876  0.08497086  1.0
  Cl  Cl7  1  0.25000000  0.08489424  0.38557964  1.0
