# generated using pymatgen
data_NaCl
_symmetry_space_group_name_H-M   'P 1'
_cell_length_a   5.88773532
_cell_length_b   6.35522836
_cell_length_c   10.77834284
_cell_angle_alpha   90.00000000
_cell_angle_beta   90.00000000
_cell_angle_gamma   90.00000000
_symmetry_Int_Tables_number   1
_chemical_formula_structural   NaCl
_chemical_formula_sum   'Na4 Cl4'
_cell_volume   403.30298130
_cell_formula_units_Z   4
loop_
 _symmetry_equiv_pos_site_id
 _symmetry_equiv_pos_as_xyz
  1  'x, y, z'
loop_
 _atom_site_type_symbol
 _atom_site_label
 _atom_site_symmetry_multiplicity
 _atom_site_fract_x
 _atom_site_fract_y
 _atom_site_fract_z
 _atom_site_occupancy
  Na  Na0  1  0.64483479  0.79066503  0.28946458  1.0
  Na  Na1  1  0.85451939  0.46249710  0.43182527  1.0
  Na  Na2  1  0.87995223  0.58038648  0.73819938  1.0
  Na  Na3  1  0.11999990  0.48876200  0.31622208  1.0
  Cl  Cl4  1  0.00000000  0.25802210  0.91493739  1.0
  Cl  Cl5  1  0.50000000  0.99764409  0.98721972  1.0
  Cl  Cl6  1  0.00000000  0.30138549  0.32235291  1.0
  Cl  Cl7  1  0.50000000  0.37759584  0.89944448  1.0
