# generated using pymatgen
data_NaCl
_symmetry_space_group_name_H-M   'P 1'
_cell_length_a   2.64196014
_cell_length_b   4.85673768
_cell_length_c   8.14403878
_cell_angle_alpha   90.00000000
_cell_angle_beta   112.11507556
_cell_angle_gamma   90.00000000
_symmetry_Int_Tables_number   1
_chemical_formula_structural   NaCl
_chemical_formula_sum   'Na4 Cl4'
_cell_volume   96.81065695
_cell_formula_units_Z   4
loop_
 _symmetry_equiv_pos_site_id
 _symmetry_equiv_pos_as_xyz
  1  'x, y, z'
loop_
 _atom_site_type_symbol
 _atom_site_label
 _atom_site_symmetry_multiplicity
 _atom_site_fract_x
 _atom_site_fract_y
 _atom_site_fract_z
 _atom_site_occupancy
  Na  Na0  1  0.24935477  0.90137016  0.14445757  1.0
  Na  Na1  1  0.85012643  0.19430173  0.04804580  1.0
  Na  Na2  1  0.15922442  0.62329449  0.46103447  1.0
  Na  Na3  1  0.79293987  0.82549780  0.50071431  1.0
  Cl  Cl4  1  0.46267149  0.60487269  0.89489581  1.0
  Cl  Cl5  1  0.46625088  0.85084372  0.94147658  1.0
  Cl  Cl6  1  0.93869653  0.18365271  0.67841809  1.0
  Cl  Cl7  1  0.14480934  0.43393143  0.38309912  1.0
