# generated using pymatgen
data_NaCl
_symmetry_space_group_name_H-M   'P 1'
_cell_length_a   8.18391012
_cell_length_b   5.56565646
_cell_length_c   2.53600182
_cell_angle_alpha   90.00000000
_cell_angle_beta   90.00000000
_cell_angle_gamma   90.00000000
_symmetry_Int_Tables_number   1
_chemical_formula_structural   NaCl
_chemical_formula_sum   'Na4 Cl4'
_cell_volume   115.51192143
_cell_formula_units_Z   4
loop_
 _symmetry_equiv_pos_site_id
 _symmetry_equiv_pos_as_xyz
  1  'x, y, z'
loop_
 _atom_site_type_symbol
 _atom_site_label
 _atom_site_symmetry_multiplicity
 _atom_site_fract_x
 _atom_site_fract_y
 _atom_site_fract_z
 _atom_site_occupancy
  Na  Na0  1  0.25000000  0.79596214  0.81545867  1.0
  Na  Na1  1  0.75000000  0.23890370  0.58483302  1.0
  Na  Na2  1  0.75000000  0.85393448  0.10067406  1.0
  Na  Na3  1  0.25000000  0.41524130  0.68891921  1.0
  Cl  Cl4  1  0.00000000  0.00000000  0.99946319  1.0
  Cl  Cl5  1  0.50000000  0.00000000  0.39297370  1.0
  Cl  Cl6  1  0.50000000  0.50000000  0.36365963  1.0
  Cl  Cl7  1  0.00000000  0.50000000  0.31667558  1.0
