# generated using pymatgen
data_NaCl
_symmetry_space_group_name_H-M   'P 1'
_cell_length_a   5.48048980
_cell_length_b   6.58376687
_cell_length_c   9.75347067
_cell_angle_alpha   90.00000000
_cell_angle_beta   90.00000000
_cell_angle_gamma   90.00000000
_symmetry_Int_Tables_number   1
_chemical_formula_structural   NaCl
_chemical_formula_sum   'Na4 Cl4'
_cell_volume   351.92733461
_cell_formula_units_Z   4
loop_
 _symmetry_equiv_pos_site_id
 _symmetry_equiv_pos_as_xyz
  1  'x, y, z'
loop_
 _atom_site_type_symbol
 _atom_site_label
 _atom_site_symmetry_multiplicity
 _atom_site_fract_x
 _atom_site_fract_y
 _atom_site_fract_z
 _atom_site_occupancy
  Na  Na0  1  0.52589015  0.73177233  0.32877992  1.0
  Na  Na1  1  0.13425965  0.23154603  0.03618967  1.0
  Na  Na2  1  0.80196971  0.72042125  0.07798311  1.0
  Na  Na3  1  0.74191741  0.51241400  0.64655628  1.0
  Cl  Cl4  1  0.40431194  0.23252225  0.98203739  1.0
  Cl  Cl5  1  0.96506078  0.90277923  0.02509931  1.0
  Cl  Cl6  1  0.93716314  0.83315577  0.42855022  1.0
  Cl  Cl7  1  0.26998449  0.55379866  0.30732216  1.0
