# generated using pymatgen
data_NaCl
_symmetry_space_group_name_H-M   'P 1'
_cell_length_a   5.65303310
_cell_length_b   5.65303310
_cell_length_c   5.65303310
_cell_angle_alpha   90.00000000
_cell_angle_beta   90.00000000
_cell_angle_gamma   90.00000000
_symmetry_Int_Tables_number   1
_chemical_formula_structural   NaCl
_chemical_formula_sum   'Na4 Cl4'
_cell_volume   180.65275337
_cell_formula_units_Z   4
loop_
 _symmetry_equiv_pos_site_id
 _symmetry_equiv_pos_as_xyz
  1  'x, y, z'
loop_
 _atom_site_type_symbol
 _atom_site_label
 _atom_site_symmetry_multiplicity
 _atom_site_fract_x
 _atom_site_fract_y
 _atom_site_fract_z
 _atom_site_occupancy
  Na  Na0  1  0.15127441  0.15127441  0.15127441  1.0
  Na  Na1  1  0.11087150  0.11087150  0.88912850  1.0
  Na  Na2  1  0.65223193  0.34776807  0.65223193  1.0
  Na  Na3  1  0.67125703  0.32874297  0.32874297  1.0
  Cl  Cl4  1  0.00000000  0.00000000  0.00000000  1.0
  Cl  Cl5  1  0.50000000  0.00000000  0.00000000  1.0
  Cl  Cl6  1  0.00000000  0.50000000  0.00000000  1.0
  Cl  Cl7  1  0.00000000  0.00000000  0.50000000  1.0
