# generated using pymatgen
data_NaCl
_symmetry_space_group_name_H-M   'P 1'
_cell_length_a   6.23412888
_cell_length_b   5.43538341
_cell_length_c   11.12627545
_cell_angle_alpha   90.00000000
_cell_angle_beta   74.22270259
_cell_angle_gamma   90.00000000
_symmetry_Int_Tables_number   1
_chemical_formula_structural   NaCl
_chemical_formula_sum   'Na4 Cl4'
_cell_volume   362.80887308
_cell_formula_units_Z   4
loop_
 _symmetry_equiv_pos_site_id
 _symmetry_equiv_pos_as_xyz
  1  'x, y, z'
loop_
 _atom_site_type_symbol
 _atom_site_label
 _atom_site_symmetry_multiplicity
 _atom_site_fract_x
 _atom_site_fract_y
 _atom_site_fract_z
 _atom_site_occupancy
  Na  Na0  1  0.00000000  0.87115495  0.50000000  1.0
  Na  Na1  1  0.50000000  0.03600109  0.50000000  1.0
  Na  Na2  1  0.00000000  0.30689083  0.50000000  1.0
  Na  Na3  1  0.50000000  0.52364538  0.50000000  1.0
  Cl  Cl4  1  0.11993837  0.50791127  0.96499469  1.0
  Cl  Cl5  1  0.76201866  0.06168928  0.10329906  1.0
  Cl  Cl6  1  0.44481908  0.87800762  0.69688531  1.0
  Cl  Cl7  1  0.29075088  0.86965592  0.40795055  1.0
