# generated using pymatgen
data_NaCl
_symmetry_space_group_name_H-M   'P 1'
_cell_length_a   5.90475206
_cell_length_b   5.90475206
_cell_length_c   7.62556256
_cell_angle_alpha   90.00000000
_cell_angle_beta   90.00000000
_cell_angle_gamma   90.00000000
_symmetry_Int_Tables_number   1
_chemical_formula_structural   NaCl
_chemical_formula_sum   'Na4 Cl4'
_cell_volume   265.87360306
_cell_formula_units_Z   4
loop_
 _symmetry_equiv_pos_site_id
 _symmetry_equiv_pos_as_xyz
  1  'x, y, z'
loop_
 _atom_site_type_symbol
 _atom_site_label
 _atom_site_symmetry_multiplicity
 _atom_site_fract_x
 _atom_site_fract_y
 _atom_site_fract_z
 _atom_site_occupancy
  Na  Na0  1  0.23466417  0.74029692  0.82506702  1.0
  Na  Na1  1  0.11232792  0.38073341  0.00294145  1.0
  Na  Na2  1  0.60259783  0.23994974  0.99588095  1.0
  Na  Na3  1  0.57847245  0.47534405  0.81068594  1.0
  Cl  Cl4  1  0.54395677  0.42338118  0.94379158  1.0
  Cl  Cl5  1  0.54583956  0.86051451  0.80897716  1.0
  Cl  Cl6  1  0.57468702  0.86600257  0.95905413  1.0
  Cl  Cl7  1  0.35607224  0.93956492  0.61389245  1.0
