# generated using pymatgen
data_NaCl
_symmetry_space_group_name_H-M   'P 1'
_cell_length_a   5.64506369
_cell_length_b   6.54923491
_cell_length_c   7.06822259
_cell_angle_alpha   90.00000000
_cell_angle_beta   90.00000000
_cell_angle_gamma   90.00000000
_symmetry_Int_Tables_number   1
_chemical_formula_structural   NaCl
_chemical_formula_sum   'Na4 Cl4'
_cell_volume   261.31818433
_cell_formula_units_Z   4
loop_
 _symmetry_equiv_pos_site_id
 _symmetry_equiv_pos_as_xyz
  1  'x, y, z'
loop_
 _atom_site_type_symbol
 _atom_site_label
 _atom_site_symmetry_multiplicity
 _atom_site_fract_x
 _atom_site_fract_y
 _atom_site_fract_z
 _atom_site_occupancy
  Na  Na0  1  0.00000000  0.50000000  0.08300668  1.0
  Na  Na1  1  0.50000000  0.00000000  0.05538102  1.0
  Na  Na2  1  0.00000000  0.50000000  0.58119746  1.0
  Na  Na3  1  0.50000000  0.00000000  0.54710825  1.0
  Cl  Cl4  1  0.45721212  0.47224657  0.94379609  1.0
  Cl  Cl5  1  0.55371619  0.87573760  0.44699333  1.0
  Cl  Cl6  1  0.32580395  0.24737859  0.14129437  1.0
  Cl  Cl7  1  0.28452488  0.10374585  0.27094600  1.0
