# generated using pymatgen
data_NaCl
_symmetry_space_group_name_H-M   'P 1'
_cell_length_a   5.35473438
_cell_length_b   6.92164921
_cell_length_c   8.95185237
_cell_angle_alpha   90.00000000
_cell_angle_beta   90.00000000
_cell_angle_gamma   90.00000000
_symmetry_Int_Tables_number   1
_chemical_formula_structural   NaCl
_chemical_formula_sum   'Na4 Cl4'
_cell_volume   331.78781276
_cell_formula_units_Z   4
loop_
 _symmetry_equiv_pos_site_id
 _symmetry_equiv_pos_as_xyz
  1  'x, y, z'
loop_
 _atom_site_type_symbol
 _atom_site_label
 _atom_site_symmetry_multiplicity
 _atom_site_fract_x
 _atom_site_fract_y
 _atom_site_fract_z
 _atom_site_occupancy
  Na  Na0  1  0.25000000  0.76645100  0.51516820  1.0
  Na  Na1  1  0.75000000  0.24048453  0.57836950  1.0
  Na  Na2  1  0.75000000  0.94412856  0.18683803  1.0
  Na  Na3  1  0.25000000  0.42707995  0.63345091  1.0
  Cl  Cl4  1  0.25000000  0.55010401  0.94085361  1.0
  Cl  Cl5  1  0.75000000  0.79449084  0.33803896  1.0
  Cl  Cl6  1  0.75000000  0.79537980  0.08688291  1.0
  Cl  Cl7  1  0.25000000  0.12921998  0.33498216  1.0
