# generated using pymatgen
data_NaCl
_symmetry_space_group_name_H-M   'P 1'
_cell_length_a   5.25804128
_cell_length_b   4.66719161
_cell_length_c   4.37967188
_cell_angle_alpha   90.00000000
_cell_angle_beta   90.00000000
_cell_angle_gamma   90.00000000
_symmetry_Int_Tables_number   1
_chemical_formula_structural   NaCl
_chemical_formula_sum   'Na4 Cl4'
_cell_volume   107.47840117
_cell_formula_units_Z   4
loop_
 _symmetry_equiv_pos_site_id
 _symmetry_equiv_pos_as_xyz
  1  'x, y, z'
loop_
 _atom_site_type_symbol
 _atom_site_label
 _atom_site_symmetry_multiplicity
 _atom_site_fract_x
 _atom_site_fract_y
 _atom_site_fract_z
 _atom_site_occupancy
  Na  Na0  1  0.14375252  0.90737719  0.17809077  1.0
  Na  Na1  1  0.07208062  0.34925990  0.49542833  1.0
  Na  Na2  1  0.77728297  0.80703609  0.50374670  1.0
  Na  Na3  1  0.05397923  0.39815479  0.96728953  1.0
  Cl  Cl4  1  0.00000000  0.00000000  0.92675249  1.0
  Cl  Cl5  1  0.50000000  0.50000000  0.65789442  1.0
  Cl  Cl6  1  0.00000000  0.00000000  0.57648214  1.0
  Cl  Cl7  1  0.50000000  0.50000000  0.28082591  1.0
