# generated using pymatgen
data_NaCl
_symmetry_space_group_name_H-M   'P 1'
_cell_length_a   6.19483366
_cell_length_b   5.34743276
_cell_length_c   8.67711304
_cell_angle_alpha   90.00000000
_cell_angle_beta   90.00000000
_cell_angle_gamma   90.00000000
_symmetry_Int_Tables_number   1
_chemical_formula_structural   NaCl
_chemical_formula_sum   'Na4 Cl4'
_cell_volume   287.44200729
_cell_formula_units_Z   4
loop_
 _symmetry_equiv_pos_site_id
 _symmetry_equiv_pos_as_xyz
  1  'x, y, z'
loop_
 _atom_site_type_symbol
 _atom_site_label
 _atom_site_symmetry_multiplicity
 _atom_site_fract_x
 _atom_site_fract_y
 _atom_site_fract_z
 _atom_site_occupancy
  Na  Na0  1  0.23440469  0.00000000  0.70882764  1.0
  Na  Na1  1  0.14191674  0.00000000  0.51766656  1.0
  Na  Na2  1  0.63757029  0.50000000  0.14570525  1.0
  Na  Na3  1  0.76093024  0.50000000  0.60130205  1.0
  Cl  Cl4  1  0.00000000  0.58218269  0.99841600  1.0
  Cl  Cl5  1  0.00000000  0.77289191  0.34724170  1.0
  Cl  Cl6  1  0.50000000  0.80119531  0.15888793  1.0
  Cl  Cl7  1  0.50000000  0.98396744  0.29507433  1.0
