# generated using pymatgen
data_NaCl
_symmetry_space_group_name_H-M   'P 1'
_cell_length_a   6.52737149
_cell_length_b   5.54952669
_cell_length_c   3.35825477
_cell_angle_alpha   90.00000000
_cell_angle_beta   89.34844257
_cell_angle_gamma   90.00000000
_symmetry_Int_Tables_number   1
_chemical_formula_structural   NaCl
_chemical_formula_sum   'Na4 Cl4'
_cell_volume   121.64095840
_cell_formula_units_Z   4
loop_
 _symmetry_equiv_pos_site_id
 _symmetry_equiv_pos_as_xyz
  1  'x, y, z'
loop_
 _atom_site_type_symbol
 _atom_site_label
 _atom_site_symmetry_multiplicity
 _atom_site_fract_x
 _atom_site_fract_y
 _atom_site_fract_z
 _atom_site_occupancy
  Na  Na0  1  0.21638995  0.69566625  0.05731379  1.0
  Na  Na1  1  0.92229670  0.18741137  0.66901186  1.0
  Na  Na2  1  0.64435558  0.95705930  0.52417930  1.0
  Na  Na3  1  0.19202658  0.30096466  0.13624927  1.0
  Cl  Cl4  1  0.52471536  0.54392813  0.89721125  1.0
  Cl  Cl5  1  0.41897155  0.85760807  0.44349627  1.0
  Cl  Cl6  1  0.27677061  0.91285826  0.65221426  1.0
  Cl  Cl7  1  0.67260878  0.96756074  0.89988905  1.0
