# generated using pymatgen
data_NaCl
_symmetry_space_group_name_H-M   'P 1'
_cell_length_a   4.06718379
_cell_length_b   4.06718379
_cell_length_c   7.87087296
_cell_angle_alpha   90.00000000
_cell_angle_beta   90.00000000
_cell_angle_gamma   90.00000000
_symmetry_Int_Tables_number   1
_chemical_formula_structural   NaCl
_chemical_formula_sum   'Na4 Cl4'
_cell_volume   130.19985443
_cell_formula_units_Z   4
loop_
 _symmetry_equiv_pos_site_id
 _symmetry_equiv_pos_as_xyz
  1  'x, y, z'
loop_
 _atom_site_type_symbol
 _atom_site_label
 _atom_site_symmetry_multiplicity
 _atom_site_fract_x
 _atom_site_fract_y
 _atom_site_fract_z
 _atom_site_occupancy
  Na  Na0  1  0.33963829  0.83051782  0.00122563  1.0
  Na  Na1  1  0.03631065  0.41191171  0.10887979  1.0
  Na  Na2  1  0.57737801  0.25240484  0.37296844  1.0
  Na  Na3  1  0.07186483  0.76076456  0.28123773  1.0
  Cl  Cl4  1  0.36598065  0.44513825  0.86689463  1.0
  Cl  Cl5  1  0.68865660  0.67780232  0.84962537  1.0
  Cl  Cl6  1  0.62842087  0.60351074  0.43371764  1.0
  Cl  Cl7  1  0.59706562  0.77331611  0.05412901  1.0
