# generated using pymatgen
data_NaCl
_symmetry_space_group_name_H-M   'P 1'
_cell_length_a   2.03305396
_cell_length_b   4.39570586
_cell_length_c   14.71598050
_cell_angle_alpha   90.00000000
_cell_angle_beta   89.04390324
_cell_angle_gamma   90.00000000
_symmetry_Int_Tables_number   1
_chemical_formula_structural   NaCl
_chemical_formula_sum   'Na4 Cl4'
_cell_volume   131.49409911
_cell_formula_units_Z   4
loop_
 _symmetry_equiv_pos_site_id
 _symmetry_equiv_pos_as_xyz
  1  'x, y, z'
loop_
 _atom_site_type_symbol
 _atom_site_label
 _atom_site_symmetry_multiplicity
 _atom_site_fract_x
 _atom_site_fract_y
 _atom_site_fract_z
 _atom_site_occupancy
  Na  Na0  1  0.42571232  0.96022448  0.08089717  1.0
  Na  Na1  1  0.77827225  0.25193693  0.52407527  1.0
  Na  Na2  1  0.71567193  0.94433597  0.17601288  1.0
  Na  Na3  1  0.99605140  0.99578680  0.39575563  1.0
  Cl  Cl4  1  0.44024118  0.00000000  0.89285922  1.0
  Cl  Cl5  1  0.90093083  0.50000000  0.37253262  1.0
  Cl  Cl6  1  0.61123305  0.00000000  0.49630374  1.0
  Cl  Cl7  1  0.75762533  0.50000000  0.78106410  1.0
