# generated using pymatgen
data_NaCl
_symmetry_space_group_name_H-M   'P 1'
_cell_length_a   4.35242341
_cell_length_b   5.74146857
_cell_length_c   7.63885271
_cell_angle_alpha   90.00000000
_cell_angle_beta   90.00000000
_cell_angle_gamma   90.00000000
_symmetry_Int_Tables_number   1
_chemical_formula_structural   NaCl
_chemical_formula_sum   'Na4 Cl4'
_cell_volume   190.88959892
_cell_formula_units_Z   4
loop_
 _symmetry_equiv_pos_site_id
 _symmetry_equiv_pos_as_xyz
  1  'x, y, z'
loop_
 _atom_site_type_symbol
 _atom_site_label
 _atom_site_symmetry_multiplicity
 _atom_site_fract_x
 _atom_site_fract_y
 _atom_site_fract_z
 _atom_site_occupancy
  Na  Na0  1  0.24770713  0.81236793  0.69724498  1.0
  Na  Na1  1  0.73228067  0.22096676  0.99089845  1.0
  Na  Na2  1  0.75212294  0.72272871  0.81740903  1.0
  Na  Na3  1  0.20524416  0.45736866  0.84648745  1.0
  Cl  Cl4  1  0.36347926  0.46476534  0.96054483  1.0
  Cl  Cl5  1  0.10494347  0.80575717  0.52099755  1.0
  Cl  Cl6  1  0.08157613  0.94987602  0.84139113  1.0
  Cl  Cl7  1  0.88494538  0.14020184  0.22755254  1.0
