# generated using pymatgen
data_NaCl
_symmetry_space_group_name_H-M   'P 1'
_cell_length_a   4.15351768
_cell_length_b   11.12331132
_cell_length_c   2.02226407
_cell_angle_alpha   90.00000000
_cell_angle_beta   72.28029721
_cell_angle_gamma   90.00000000
_symmetry_Int_Tables_number   1
_chemical_formula_structural   NaCl
_chemical_formula_sum   'Na4 Cl4'
_cell_volume   88.99773157
_cell_formula_units_Z   4
loop_
 _symmetry_equiv_pos_site_id
 _symmetry_equiv_pos_as_xyz
  1  'x, y, z'
loop_
 _atom_site_type_symbol
 _atom_site_label
 _atom_site_symmetry_multiplicity
 _atom_site_fract_x
 _atom_site_fract_y
 _atom_site_fract_z
 _atom_site_occupancy
  Na  Na0  1  0.30194140  0.76972508  0.01874588  1.0
  Na  Na1  1  0.70286698  0.20382540  0.60984326  1.0
  Na  Na2  1  0.61717043  0.75365607  0.31262591  1.0
  Na  Na3  1  0.32386198  0.30306996  0.11986538  1.0
  Cl  Cl4  1  0.39521869  0.00000000  0.91999230  1.0
  Cl  Cl5  1  0.89222724  0.50000000  0.45558557  1.0
  Cl  Cl6  1  0.83290205  0.00000000  0.67933591  1.0
  Cl  Cl7  1  0.58475521  0.50000000  0.91231078  1.0
