# generated using pymatgen
data_NaCl
_symmetry_space_group_name_H-M   'P 1'
_cell_length_a   7.75953148
_cell_length_b   7.75953148
_cell_length_c   2.01835902
_cell_angle_alpha   90.00000000
_cell_angle_beta   90.00000000
_cell_angle_gamma   90.00000000
_symmetry_Int_Tables_number   1
_chemical_formula_structural   NaCl
_chemical_formula_sum   'Na4 Cl4'
_cell_volume   121.52606021
_cell_formula_units_Z   4
loop_
 _symmetry_equiv_pos_site_id
 _symmetry_equiv_pos_as_xyz
  1  'x, y, z'
loop_
 _atom_site_type_symbol
 _atom_site_label
 _atom_site_symmetry_multiplicity
 _atom_site_fract_x
 _atom_site_fract_y
 _atom_site_fract_z
 _atom_site_occupancy
  Na  Na0  1  0.32198486  0.66084740  0.00130855  1.0
  Na  Na1  1  0.34980799  0.14149148  0.99765287  1.0
  Na  Na2  1  0.44763723  0.00166283  0.84692695  1.0
  Na  Na3  1  0.04756593  0.29057510  0.57774766  1.0
  Cl  Cl4  1  0.41764555  0.32863693  0.99962677  1.0
  Cl  Cl5  1  0.59696006  0.97835114  0.84373594  1.0
  Cl  Cl6  1  0.03203625  0.85183125  0.86363623  1.0
  Cl  Cl7  1  0.82278773  0.93994916  0.67503221  1.0
