# generated using pymatgen
data_NaCl
_symmetry_space_group_name_H-M   'P 1'
_cell_length_a   4.77886353
_cell_length_b   6.48018212
_cell_length_c   8.89646944
_cell_angle_alpha   90.00000000
_cell_angle_beta   75.47506490
_cell_angle_gamma   90.00000000
_symmetry_Int_Tables_number   1
_chemical_formula_structural   NaCl
_chemical_formula_sum   'Na4 Cl4'
_cell_volume   266.69949835
_cell_formula_units_Z   4
loop_
 _symmetry_equiv_pos_site_id
 _symmetry_equiv_pos_as_xyz
  1  'x, y, z'
loop_
 _atom_site_type_symbol
 _atom_site_label
 _atom_site_symmetry_multiplicity
 _atom_site_fract_x
 _atom_site_fract_y
 _atom_site_fract_z
 _atom_site_occupancy
  Na  Na0  1  0.24594705  0.80181717  0.04671464  1.0
  Na  Na1  1  0.77395857  0.29464242  0.52663427  1.0
  Na  Na2  1  0.73597701  0.93118442  0.56311930  1.0
  Na  Na3  1  0.38353730  0.48084558  0.11990837  1.0
  Cl  Cl4  1  0.36336660  0.50531727  0.93646616  1.0
  Cl  Cl5  1  0.38443321  0.83057146  0.32527154  1.0
  Cl  Cl6  1  0.31676423  0.72574818  0.70752364  1.0
  Cl  Cl7  1  0.70188651  0.09459885  0.83250562  1.0
