# generated using pymatgen
data_NaCl
_symmetry_space_group_name_H-M   'P 1'
_cell_length_a   7.50412611
_cell_length_b   5.43318399
_cell_length_c   8.80851895
_cell_angle_alpha   90.00000000
_cell_angle_beta   74.27861312
_cell_angle_gamma   90.00000000
_symmetry_Int_Tables_number   1
_chemical_formula_structural   NaCl
_chemical_formula_sum   'Na4 Cl4'
_cell_volume   345.69975997
_cell_formula_units_Z   4
loop_
 _symmetry_equiv_pos_site_id
 _symmetry_equiv_pos_as_xyz
  1  'x, y, z'
loop_
 _atom_site_type_symbol
 _atom_site_label
 _atom_site_symmetry_multiplicity
 _atom_site_fract_x
 _atom_site_fract_y
 _atom_site_fract_z
 _atom_site_occupancy
  Na  Na0  1  0.22531461  0.77970493  0.08603659  1.0
  Na  Na1  1  0.93155601  0.44932068  0.01344727  1.0
  Na  Na2  1  0.27306319  0.22093086  0.60053186  1.0
  Na  Na3  1  0.01473450  0.94259906  0.77273085  1.0
  Cl  Cl4  1  0.33524303  0.61403097  0.84031127  1.0
  Cl  Cl5  1  0.23746193  0.70251165  0.80671657  1.0
  Cl  Cl6  1  0.98077095  0.35764780  0.64544687  1.0
  Cl  Cl7  1  0.24287470  0.53088534  0.31255310  1.0
