# generated using pymatgen
data_NaCl
_symmetry_space_group_name_H-M   'P 1'
_cell_length_a   5.07472095
_cell_length_b   5.45160934
_cell_length_c   9.21103950
_cell_angle_alpha   90.00000000
_cell_angle_beta   90.00000000
_cell_angle_gamma   90.00000000
_symmetry_Int_Tables_number   1
_chemical_formula_structural   NaCl
_chemical_formula_sum   'Na4 Cl4'
_cell_volume   254.82705653
_cell_formula_units_Z   4
loop_
 _symmetry_equiv_pos_site_id
 _symmetry_equiv_pos_as_xyz
  1  'x, y, z'
loop_
 _atom_site_type_symbol
 _atom_site_label
 _atom_site_symmetry_multiplicity
 _atom_site_fract_x
 _atom_site_fract_y
 _atom_site_fract_z
 _atom_site_occupancy
  Na  Na0  1  0.24787625  0.73466996  0.07045154  1.0
  Na  Na1  1  0.12847261  0.16521237  0.25577992  1.0
  Na  Na2  1  0.61253244  0.64214371  0.59767229  1.0
  Na  Na3  1  0.89590720  0.00023248  0.51759644  1.0
  Cl  Cl4  1  0.36748576  0.48540278  0.96648335  1.0
  Cl  Cl5  1  0.61873331  0.63663449  0.87157956  1.0
  Cl  Cl6  1  0.30296919  0.49411451  0.68456771  1.0
  Cl  Cl7  1  0.29529482  0.02363075  0.24072917  1.0
