# generated using pymatgen
data_NaCl
_symmetry_space_group_name_H-M   'P 1'
_cell_length_a   6.13868842
_cell_length_b   6.13868842
_cell_length_c   6.13868842
_cell_angle_alpha   90.00000000
_cell_angle_beta   90.00000000
_cell_angle_gamma   90.00000000
_symmetry_Int_Tables_number   1
_chemical_formula_structural   NaCl
_chemical_formula_sum   'Na4 Cl4'
_cell_volume   231.32723756
_cell_formula_units_Z   4
loop_
 _symmetry_equiv_pos_site_id
 _symmetry_equiv_pos_as_xyz
  1  'x, y, z'
loop_
 _atom_site_type_symbol
 _atom_site_label
 _atom_site_symmetry_multiplicity
 _atom_site_fract_x
 _atom_site_fract_y
 _atom_site_fract_z
 _atom_site_occupancy
  Na  Na0  1  0.18570413  0.18570413  0.18570413  1.0
  Na  Na1  1  0.96206402  0.46206402  0.03793598  1.0
  Na  Na2  1  0.52233284  0.97766716  0.02233284  1.0
  Na  Na3  1  0.17223632  0.82776368  0.32776368  1.0
  Cl  Cl4  1  0.35597426  0.35597426  0.35597426  1.0
  Cl  Cl5  1  0.57630087  0.07630087  0.42369913  1.0
  Cl  Cl6  1  0.81600572  0.68399428  0.31600572  1.0
  Cl  Cl7  1  0.77685883  0.22314117  0.72314117  1.0
