# generated using pymatgen
data_NaCl
_symmetry_space_group_name_H-M   'P 1'
_cell_length_a   4.74886452
_cell_length_b   4.74886452
_cell_length_c   10.26564432
_cell_angle_alpha   90.00000000
_cell_angle_beta   90.00000000
_cell_angle_gamma   90.00000000
_symmetry_Int_Tables_number   1
_chemical_formula_structural   NaCl
_chemical_formula_sum   'Na4 Cl4'
_cell_volume   231.50787708
_cell_formula_units_Z   4
loop_
 _symmetry_equiv_pos_site_id
 _symmetry_equiv_pos_as_xyz
  1  'x, y, z'
loop_
 _atom_site_type_symbol
 _atom_site_label
 _atom_site_symmetry_multiplicity
 _atom_site_fract_x
 _atom_site_fract_y
 _atom_site_fract_z
 _atom_site_occupancy
  Na  Na0  1  0.12007106  0.30031505  0.44473748  1.0
  Na  Na1  1  0.14013208  0.80680397  0.04087608  1.0
  Na  Na2  1  0.28245347  0.36546475  0.68448415  1.0
  Na  Na3  1  0.39989096  0.62473182  0.96326318  1.0
  Cl  Cl4  1  0.15190648  0.87527773  0.72437025  1.0
  Cl  Cl5  1  0.00041033  0.39144753  0.25160913  1.0
  Cl  Cl6  1  0.01364067  0.02142006  0.88258571  1.0
  Cl  Cl7  1  0.66471240  0.72771727  0.28562462  1.0
