# generated using pymatgen
data_NaCl
_symmetry_space_group_name_H-M   'P 1'
_cell_length_a   5.59806474
_cell_length_b   5.59806474
_cell_length_c   10.72731997
_cell_angle_alpha   90.00000000
_cell_angle_beta   90.00000000
_cell_angle_gamma   90.00000000
_symmetry_Int_Tables_number   1
_chemical_formula_structural   NaCl
_chemical_formula_sum   'Na4 Cl4'
_cell_volume   336.17628072
_cell_formula_units_Z   4
loop_
 _symmetry_equiv_pos_site_id
 _symmetry_equiv_pos_as_xyz
  1  'x, y, z'
loop_
 _atom_site_type_symbol
 _atom_site_label
 _atom_site_symmetry_multiplicity
 _atom_site_fract_x
 _atom_site_fract_y
 _atom_site_fract_z
 _atom_site_occupancy
  Na  Na0  1  0.28083006  0.41939524  0.01946673  1.0
  Na  Na1  1  0.51021385  0.98236043  0.49984271  1.0
  Na  Na2  1  0.20054475  0.47525516  0.19004724  1.0
  Na  Na3  1  0.31685639  0.67867636  0.38565235  1.0
  Cl  Cl4  1  0.99950162  0.98262888  0.22088451  1.0
  Cl  Cl5  1  0.58686879  0.02255476  0.34759694  1.0
  Cl  Cl6  1  0.84038844  0.15238232  0.21614590  1.0
  Cl  Cl7  1  0.72899588  0.64236364  0.77822579  1.0
