# generated using pymatgen
data_NaCl
_symmetry_space_group_name_H-M   'P 1'
_cell_length_a   7.13391805
_cell_length_b   7.13391805
_cell_length_c   7.13391805
_cell_angle_alpha   90.00000000
_cell_angle_beta   90.00000000
_cell_angle_gamma   90.00000000
_symmetry_Int_Tables_number   1
_chemical_formula_structural   NaCl
_chemical_formula_sum   'Na4 Cl4'
_cell_volume   363.06496997
_cell_formula_units_Z   4
loop_
 _symmetry_equiv_pos_site_id
 _symmetry_equiv_pos_as_xyz
  1  'x, y, z'
loop_
 _atom_site_type_symbol
 _atom_site_label
 _atom_site_symmetry_multiplicity
 _atom_site_fract_x
 _atom_site_fract_y
 _atom_site_fract_z
 _atom_site_occupancy
  Na  Na0  1  0.28439369  0.28439369  0.28439369  1.0
  Na  Na1  1  0.92701802  0.42701802  0.07298198  1.0
  Na  Na2  1  0.53897656  0.96102344  0.03897656  1.0
  Na  Na3  1  0.44168427  0.55831573  0.05831573  1.0
  Cl  Cl4  1  0.39610956  0.39610956  0.39610956  1.0
  Cl  Cl5  1  0.58066177  0.08066177  0.41933823  1.0
  Cl  Cl6  1  0.80055152  0.69944848  0.30055152  1.0
  Cl  Cl7  1  0.60272826  0.39727174  0.89727174  1.0
