# generated using pymatgen
data_NaCl
_symmetry_space_group_name_H-M   'P 1'
_cell_length_a   5.31521062
_cell_length_b   5.31521062
_cell_length_c   5.31521062
_cell_angle_alpha   90.00000000
_cell_angle_beta   90.00000000
_cell_angle_gamma   90.00000000
_symmetry_Int_Tables_number   1
_chemical_formula_structural   NaCl
_chemical_formula_sum   'Na4 Cl4'
_cell_volume   150.16248114
_cell_formula_units_Z   4
loop_
 _symmetry_equiv_pos_site_id
 _symmetry_equiv_pos_as_xyz
  1  'x, y, z'
loop_
 _atom_site_type_symbol
 _atom_site_label
 _atom_site_symmetry_multiplicity
 _atom_site_fract_x
 _atom_site_fract_y
 _atom_site_fract_z
 _atom_site_occupancy
  Na  Na0  1  0.14976684  0.14976684  0.14976684  1.0
  Na  Na1  1  0.48754441  0.98754441  0.51245559  1.0
  Na  Na2  1  0.69071769  0.80928231  0.19071769  1.0
  Na  Na3  1  0.27673694  0.72326306  0.22326306  1.0
  Cl  Cl4  1  0.37985542  0.37985542  0.37985542  1.0
  Cl  Cl5  1  0.60687933  0.10687933  0.39312067  1.0
  Cl  Cl6  1  0.80954147  0.69045853  0.30954147  1.0
  Cl  Cl7  1  0.63697527  0.36302473  0.86302473  1.0
