# generated using pymatgen
data_NaCl
_symmetry_space_group_name_H-M   'P 1'
_cell_length_a   6.56875168
_cell_length_b   8.55853119
_cell_length_c   15.02283102
_cell_angle_alpha   90.00000000
_cell_angle_beta   152.96269220
_cell_angle_gamma   90.00000000
_symmetry_Int_Tables_number   1
_chemical_formula_structural   NaCl
_chemical_formula_sum   'Na4 Cl4'
_cell_volume   383.91509303
_cell_formula_units_Z   4
loop_
 _symmetry_equiv_pos_site_id
 _symmetry_equiv_pos_as_xyz
  1  'x, y, z'
loop_
 _atom_site_type_symbol
 _atom_site_label
 _atom_site_symmetry_multiplicity
 _atom_site_fract_x
 _atom_site_fract_y
 _atom_site_fract_z
 _atom_site_occupancy
  Na  Na0  1  0.37758287  0.02125745  0.01612417  1.0
  Na  Na1  1  0.89733042  0.89061607  0.99818664  1.0
  Na  Na2  1  0.50603138  0.88135132  0.52748557  1.0
  Na  Na3  1  0.34815946  0.52419650  0.75468443  1.0
  Cl  Cl4  1  0.71555754  0.78074255  0.56110217  1.0
  Cl  Cl5  1  0.96800040  0.06982601  0.22705283  1.0
  Cl  Cl6  1  0.11646180  0.98313009  0.58035387  1.0
  Cl  Cl7  1  0.12400955  0.18519744  0.95629924  1.0
