# generated using pymatgen
data_NaCl
_symmetry_space_group_name_H-M   'P 1'
_cell_length_a   5.28161512
_cell_length_b   6.14464925
_cell_length_c   14.92314198
_cell_angle_alpha   90.00000000
_cell_angle_beta   136.40500696
_cell_angle_gamma   90.00000000
_symmetry_Int_Tables_number   1
_chemical_formula_structural   NaCl
_chemical_formula_sum   'Na4 Cl4'
_cell_volume   333.95951554
_cell_formula_units_Z   4
loop_
 _symmetry_equiv_pos_site_id
 _symmetry_equiv_pos_as_xyz
  1  'x, y, z'
loop_
 _atom_site_type_symbol
 _atom_site_label
 _atom_site_symmetry_multiplicity
 _atom_site_fract_x
 _atom_site_fract_y
 _atom_site_fract_z
 _atom_site_occupancy
  Na  Na0  1  0.07451906  0.00000000  0.08356244  1.0
  Na  Na1  1  0.25075505  0.50000000  0.45763695  1.0
  Na  Na2  1  0.47107237  0.00000000  0.29157427  1.0
  Na  Na3  1  0.78636026  0.50000000  0.76605127  1.0
  Cl  Cl4  1  0.89987646  0.00000000  0.50021801  1.0
  Cl  Cl5  1  0.49932590  0.50000000  0.93745836  1.0
  Cl  Cl6  1  0.18907019  0.00000000  0.41471126  1.0
  Cl  Cl7  1  0.75701461  0.50000000  0.49371896  1.0
