# generated using pymatgen
data_NaCl
_symmetry_space_group_name_H-M   'P 1'
_cell_length_a   5.12433117
_cell_length_b   5.55271565
_cell_length_c   14.00563873
_cell_angle_alpha   90.00000000
_cell_angle_beta   90.00000000
_cell_angle_gamma   90.00000000
_symmetry_Int_Tables_number   1
_chemical_formula_structural   NaCl
_chemical_formula_sum   'Na4 Cl4'
_cell_volume   398.51579853
_cell_formula_units_Z   4
loop_
 _symmetry_equiv_pos_site_id
 _symmetry_equiv_pos_as_xyz
  1  'x, y, z'
loop_
 _atom_site_type_symbol
 _atom_site_label
 _atom_site_symmetry_multiplicity
 _atom_site_fract_x
 _atom_site_fract_y
 _atom_site_fract_z
 _atom_site_occupancy
  Na  Na0  1  0.00000000  0.49249188  0.00095584  1.0
  Na  Na1  1  0.00000000  0.90164500  0.94992049  1.0
  Na  Na2  1  0.50000000  0.58785191  0.56310324  1.0
  Na  Na3  1  0.50000000  0.10903971  0.64028321  1.0
  Cl  Cl4  1  0.00000000  0.84212983  0.51511247  1.0
  Cl  Cl5  1  0.00000000  0.08714267  0.27369439  1.0
  Cl  Cl6  1  0.50000000  0.27833261  0.50004439  1.0
  Cl  Cl7  1  0.50000000  0.67744767  0.09057539  1.0
