# generated using pymatgen
data_NaCl
_symmetry_space_group_name_H-M   'P 1'
_cell_length_a   6.02448625
_cell_length_b   6.02448625
_cell_length_c   6.02448625
_cell_angle_alpha   90.00000000
_cell_angle_beta   90.00000000
_cell_angle_gamma   90.00000000
_symmetry_Int_Tables_number   1
_chemical_formula_structural   NaCl
_chemical_formula_sum   'Na4 Cl4'
_cell_volume   218.65532206
_cell_formula_units_Z   4
loop_
 _symmetry_equiv_pos_site_id
 _symmetry_equiv_pos_as_xyz
  1  'x, y, z'
loop_
 _atom_site_type_symbol
 _atom_site_label
 _atom_site_symmetry_multiplicity
 _atom_site_fract_x
 _atom_site_fract_y
 _atom_site_fract_z
 _atom_site_occupancy
  Na  Na0  1  0.23065510  0.23065510  0.23065510  1.0
  Na  Na1  1  0.93783777  0.43783777  0.06216223  1.0
  Na  Na2  1  0.63996527  0.86003473  0.13996527  1.0
  Na  Na3  1  0.25096185  0.74903815  0.24903815  1.0
  Cl  Cl4  1  0.39014030  0.39014030  0.39014030  1.0
  Cl  Cl5  1  0.67560306  0.17560306  0.32439694  1.0
  Cl  Cl6  1  0.78228681  0.71771319  0.28228681  1.0
  Cl  Cl7  1  0.65602567  0.34397433  0.84397433  1.0
