# generated using pymatgen
data_NaCl
_symmetry_space_group_name_H-M   'P 1'
_cell_length_a   3.43349864
_cell_length_b   3.43349864
_cell_length_c   10.87372750
_cell_angle_alpha   90.00000000
_cell_angle_beta   90.00000000
_cell_angle_gamma   90.00000000
_symmetry_Int_Tables_number   1
_chemical_formula_structural   NaCl
_chemical_formula_sum   'Na4 Cl4'
_cell_volume   128.18942651
_cell_formula_units_Z   4
loop_
 _symmetry_equiv_pos_site_id
 _symmetry_equiv_pos_as_xyz
  1  'x, y, z'
loop_
 _atom_site_type_symbol
 _atom_site_label
 _atom_site_symmetry_multiplicity
 _atom_site_fract_x
 _atom_site_fract_y
 _atom_site_fract_z
 _atom_site_occupancy
  Na  Na0  1  0.15051653  0.32402901  0.15446438  1.0
  Na  Na1  1  0.61839023  0.94633630  0.36130591  1.0
  Na  Na2  1  0.15519731  0.40619002  0.84859932  1.0
  Na  Na3  1  0.31940584  0.70879040  0.26071962  1.0
  Cl  Cl4  1  0.18550375  0.79333717  0.68354514  1.0
  Cl  Cl5  1  0.10006309  0.13339486  0.33092711  1.0
  Cl  Cl6  1  0.79594402  0.03243468  0.95022805  1.0
  Cl  Cl7  1  0.78729356  0.52945302  0.33041847  1.0
