# generated using pymatgen
data_NaCl
_symmetry_space_group_name_H-M   'P 1'
_cell_length_a   6.18391520
_cell_length_b   11.69451460
_cell_length_c   17.67803866
_cell_angle_alpha   145.67256566
_cell_angle_beta   149.90386222
_cell_angle_gamma   61.54038194
_symmetry_Int_Tables_number   1
_chemical_formula_structural   NaCl
_chemical_formula_sum   'Na4 Cl4'
_cell_volume   195.31979561
_cell_formula_units_Z   4
loop_
 _symmetry_equiv_pos_site_id
 _symmetry_equiv_pos_as_xyz
  1  'x, y, z'
loop_
 _atom_site_type_symbol
 _atom_site_label
 _atom_site_symmetry_multiplicity
 _atom_site_fract_x
 _atom_site_fract_y
 _atom_site_fract_z
 _atom_site_occupancy
  Na  Na0  1  0.00000000  0.00000000  0.00000000  1.0
  Na  Na1  1  0.00000000  0.50000000  0.00000000  1.0
  Na  Na2  1  0.00000000  0.50000000  0.50000000  1.0
  Na  Na3  1  0.50000000  0.50000000  0.00000000  1.0
  Cl  Cl4  1  0.25248447  0.96789762  0.27359841  1.0
  Cl  Cl5  1  0.20188537  0.27319628  0.00294608  1.0
  Cl  Cl6  1  0.15645313  0.76790958  0.62128769  1.0
  Cl  Cl7  1  0.76916903  0.11161054  0.43157666  1.0
