# generated using pymatgen
data_NaCl
_symmetry_space_group_name_H-M   'P 1'
_cell_length_a   4.78777444
_cell_length_b   4.78777444
_cell_length_c   15.70614297
_cell_angle_alpha   90.00000000
_cell_angle_beta   90.00000000
_cell_angle_gamma   90.00000000
_symmetry_Int_Tables_number   1
_chemical_formula_structural   NaCl
_chemical_formula_sum   'Na4 Cl4'
_cell_volume   360.02852416
_cell_formula_units_Z   4
loop_
 _symmetry_equiv_pos_site_id
 _symmetry_equiv_pos_as_xyz
  1  'x, y, z'
loop_
 _atom_site_type_symbol
 _atom_site_label
 _atom_site_symmetry_multiplicity
 _atom_site_fract_x
 _atom_site_fract_y
 _atom_site_fract_z
 _atom_site_occupancy
  Na  Na0  1  0.21955654  0.37802439  0.22241689  1.0
  Na  Na1  1  0.45782195  0.96796983  0.54867181  1.0
  Na  Na2  1  0.44912680  0.48488930  0.75738382  1.0
  Na  Na3  1  0.10146652  0.05591475  0.56473417  1.0
  Cl  Cl4  1  0.36073310  0.83955547  0.20766704  1.0
  Cl  Cl5  1  0.05596242  0.08943103  0.40394632  1.0
  Cl  Cl6  1  0.14491218  0.18556877  0.84941383  1.0
  Cl  Cl7  1  0.47459977  0.80517390  0.39585678  1.0
