# generated using pymatgen
data_NaCl
_symmetry_space_group_name_H-M   'P 1'
_cell_length_a   7.22612349
_cell_length_b   7.22612349
_cell_length_c   7.22612349
_cell_angle_alpha   90.00000000
_cell_angle_beta   90.00000000
_cell_angle_gamma   90.00000000
_symmetry_Int_Tables_number   1
_chemical_formula_structural   NaCl
_chemical_formula_sum   'Na4 Cl4'
_cell_volume   377.32548363
_cell_formula_units_Z   4
loop_
 _symmetry_equiv_pos_site_id
 _symmetry_equiv_pos_as_xyz
  1  'x, y, z'
loop_
 _atom_site_type_symbol
 _atom_site_label
 _atom_site_symmetry_multiplicity
 _atom_site_fract_x
 _atom_site_fract_y
 _atom_site_fract_z
 _atom_site_occupancy
  Na  Na0  1  0.22723334  0.22723334  0.22723334  1.0
  Na  Na1  1  0.90599195  0.40599195  0.09400805  1.0
  Na  Na2  1  0.60143046  0.89856954  0.10143046  1.0
  Na  Na3  1  0.35372199  0.64627801  0.14627801  1.0
  Cl  Cl4  1  0.33491805  0.33491805  0.33491805  1.0
  Cl  Cl5  1  0.50004589  0.00004589  0.49995411  1.0
  Cl  Cl6  1  0.71050148  0.78949852  0.21050148  1.0
  Cl  Cl7  1  0.57316783  0.42683217  0.92683217  1.0
