# generated using pymatgen
data_NaCl
_symmetry_space_group_name_H-M   'P 1'
_cell_length_a   7.00312182
_cell_length_b   7.00312182
_cell_length_c   7.00312182
_cell_angle_alpha   90.00000000
_cell_angle_beta   90.00000000
_cell_angle_gamma   90.00000000
_symmetry_Int_Tables_number   1
_chemical_formula_structural   NaCl
_chemical_formula_sum   'Na4 Cl4'
_cell_volume   343.45911223
_cell_formula_units_Z   4
loop_
 _symmetry_equiv_pos_site_id
 _symmetry_equiv_pos_as_xyz
  1  'x, y, z'
loop_
 _atom_site_type_symbol
 _atom_site_label
 _atom_site_symmetry_multiplicity
 _atom_site_fract_x
 _atom_site_fract_y
 _atom_site_fract_z
 _atom_site_occupancy
  Na  Na0  1  0.25951299  0.25951299  0.25951299  1.0
  Na  Na1  1  0.94178194  0.44178194  0.05821806  1.0
  Na  Na2  1  0.55711171  0.94288829  0.05711171  1.0
  Na  Na3  1  0.38209374  0.61790626  0.11790626  1.0
  Cl  Cl4  1  0.07703024  0.07703024  0.07703024  1.0
  Cl  Cl5  1  0.66478763  0.16478763  0.33521237  1.0
  Cl  Cl6  1  0.78689511  0.71310489  0.28689511  1.0
  Cl  Cl7  1  0.65795521  0.34204479  0.84204479  1.0
