# generated using pymatgen
data_NaCl
_symmetry_space_group_name_H-M   'P 1'
_cell_length_a   2.82202974
_cell_length_b   20.93845249
_cell_length_c   7.69770635
_cell_angle_alpha   90.00000000
_cell_angle_beta   62.52361288
_cell_angle_gamma   90.00000000
_symmetry_Int_Tables_number   1
_chemical_formula_structural   NaCl
_chemical_formula_sum   'Na4 Cl4'
_cell_volume   403.54275663
_cell_formula_units_Z   4
loop_
 _symmetry_equiv_pos_site_id
 _symmetry_equiv_pos_as_xyz
  1  'x, y, z'
loop_
 _atom_site_type_symbol
 _atom_site_label
 _atom_site_symmetry_multiplicity
 _atom_site_fract_x
 _atom_site_fract_y
 _atom_site_fract_z
 _atom_site_occupancy
  Na  Na0  1  0.00000000  0.00000000  0.00000000  1.0
  Na  Na1  1  0.00000000  0.50000000  0.00000000  1.0
  Na  Na2  1  0.18402603  0.25000000  0.51100285  1.0
  Na  Na3  1  0.78325178  0.75000000  0.49243938  1.0
  Cl  Cl4  1  0.42265128  0.38881779  0.18511327  1.0
  Cl  Cl5  1  0.54637615  0.15020521  0.26746082  1.0
  Cl  Cl6  1  0.68523869  0.40929036  0.69260022  1.0
  Cl  Cl7  1  0.41220602  0.80501596  0.81907431  1.0
