# generated using pymatgen
data_NaCl
_symmetry_space_group_name_H-M   'P 1'
_cell_length_a   5.59351503
_cell_length_b   5.59351503
_cell_length_c   5.59351503
_cell_angle_alpha   90.00000000
_cell_angle_beta   90.00000000
_cell_angle_gamma   90.00000000
_symmetry_Int_Tables_number   1
_chemical_formula_structural   NaCl
_chemical_formula_sum   'Na4 Cl4'
_cell_volume   175.00660027
_cell_formula_units_Z   4
loop_
 _symmetry_equiv_pos_site_id
 _symmetry_equiv_pos_as_xyz
  1  'x, y, z'
loop_
 _atom_site_type_symbol
 _atom_site_label
 _atom_site_symmetry_multiplicity
 _atom_site_fract_x
 _atom_site_fract_y
 _atom_site_fract_z
 _atom_site_occupancy
  Na  Na0  1  0.99536478  0.99536478  0.99536478  1.0
  Na  Na1  1  0.55222912  0.05222912  0.44777088  1.0
  Na  Na2  1  0.66071288  0.83928712  0.16071288  1.0
  Na  Na3  1  0.88021445  0.11978555  0.61978555  1.0
  Cl  Cl4  1  0.57589099  0.57589099  0.57589099  1.0
  Cl  Cl5  1  0.13081472  0.63081472  0.86918528  1.0
  Cl  Cl6  1  0.17750555  0.32249445  0.67750555  1.0
  Cl  Cl7  1  0.50774131  0.49225869  0.99225869  1.0
