# generated using pymatgen
data_NaCl
_symmetry_space_group_name_H-M   'P 1'
_cell_length_a   4.75154533
_cell_length_b   4.75154533
_cell_length_c   13.45367621
_cell_angle_alpha   90.00000000
_cell_angle_beta   90.00000000
_cell_angle_gamma   90.00000000
_symmetry_Int_Tables_number   1
_chemical_formula_structural   NaCl
_chemical_formula_sum   'Na4 Cl4'
_cell_volume   303.74611013
_cell_formula_units_Z   4
loop_
 _symmetry_equiv_pos_site_id
 _symmetry_equiv_pos_as_xyz
  1  'x, y, z'
loop_
 _atom_site_type_symbol
 _atom_site_label
 _atom_site_symmetry_multiplicity
 _atom_site_fract_x
 _atom_site_fract_y
 _atom_site_fract_z
 _atom_site_occupancy
  Na  Na0  1  0.91868256  0.51988248  0.10579422  1.0
  Na  Na1  1  0.56117534  0.94436882  0.01842914  1.0
  Na  Na2  1  0.43329199  0.44177921  0.76441794  1.0
  Na  Na3  1  0.42774043  0.17532026  0.53455278  1.0
  Cl  Cl4  1  0.00372464  0.75745346  0.51371747  1.0
  Cl  Cl5  1  0.17770357  0.10818571  0.37670112  1.0
  Cl  Cl6  1  0.11341066  0.18108095  0.73356682  1.0
  Cl  Cl7  1  0.71309485  0.83039578  0.37446181  1.0
