# generated using pymatgen
data_NaCl
_symmetry_space_group_name_H-M   'P 1'
_cell_length_a   5.75453579
_cell_length_b   4.41394888
_cell_length_c   13.60160658
_cell_angle_alpha   90.00000000
_cell_angle_beta   90.00000000
_cell_angle_gamma   90.00000000
_symmetry_Int_Tables_number   1
_chemical_formula_structural   NaCl
_chemical_formula_sum   'Na4 Cl4'
_cell_volume   345.48389205
_cell_formula_units_Z   4
loop_
 _symmetry_equiv_pos_site_id
 _symmetry_equiv_pos_as_xyz
  1  'x, y, z'
loop_
 _atom_site_type_symbol
 _atom_site_label
 _atom_site_symmetry_multiplicity
 _atom_site_fract_x
 _atom_site_fract_y
 _atom_site_fract_z
 _atom_site_occupancy
  Na  Na0  1  0.44507575  0.46477739  0.03395495  1.0
  Na  Na1  1  0.61241672  0.90090515  0.18146966  1.0
  Na  Na2  1  0.85501487  0.97976084  0.56691228  1.0
  Na  Na3  1  0.25735609  0.32968942  0.59783558  1.0
  Cl  Cl4  1  0.21717443  0.78063513  0.55314219  1.0
  Cl  Cl5  1  0.18990459  0.03257712  0.28474523  1.0
  Cl  Cl6  1  0.65079569  0.17018224  0.53263808  1.0
  Cl  Cl7  1  0.27635799  0.79660620  0.08502114  1.0
