# generated using pymatgen
data_NaCl
_symmetry_space_group_name_H-M   'P 1'
_cell_length_a   6.03377293
_cell_length_b   7.16757449
_cell_length_c   16.25095948
_cell_angle_alpha   90.00000000
_cell_angle_beta   148.60498852
_cell_angle_gamma   90.00000000
_symmetry_Int_Tables_number   1
_chemical_formula_structural   NaCl
_chemical_formula_sum   'Na4 Cl4'
_cell_volume   366.12044735
_cell_formula_units_Z   4
loop_
 _symmetry_equiv_pos_site_id
 _symmetry_equiv_pos_as_xyz
  1  'x, y, z'
loop_
 _atom_site_type_symbol
 _atom_site_label
 _atom_site_symmetry_multiplicity
 _atom_site_fract_x
 _atom_site_fract_y
 _atom_site_fract_z
 _atom_site_occupancy
  Na  Na0  1  0.27828195  0.45536884  0.18614285  1.0
  Na  Na1  1  0.51741735  0.96716747  0.16087546  1.0
  Na  Na2  1  0.48284123  0.55416035  0.50038931  1.0
  Na  Na3  1  0.32771139  0.80258861  0.93108271  1.0
  Cl  Cl4  1  0.37722785  0.92022327  0.35705679  1.0
  Cl  Cl5  1  0.87966289  0.30123988  0.36818074  1.0
  Cl  Cl6  1  0.18635700  0.88500018  0.69480594  1.0
  Cl  Cl7  1  0.01915237  0.58395546  0.19026851  1.0
