# generated using pymatgen
data_NaCl
_symmetry_space_group_name_H-M   'P 1'
_cell_length_a   5.56912084
_cell_length_b   6.39080856
_cell_length_c   11.39252228
_cell_angle_alpha   90.00000000
_cell_angle_beta   127.09919417
_cell_angle_gamma   90.00000000
_symmetry_Int_Tables_number   1
_chemical_formula_structural   NaCl
_chemical_formula_sum   'Na4 Cl4'
_cell_volume   323.40248309
_cell_formula_units_Z   4
loop_
 _symmetry_equiv_pos_site_id
 _symmetry_equiv_pos_as_xyz
  1  'x, y, z'
loop_
 _atom_site_type_symbol
 _atom_site_label
 _atom_site_symmetry_multiplicity
 _atom_site_fract_x
 _atom_site_fract_y
 _atom_site_fract_z
 _atom_site_occupancy
  Na  Na0  1  0.00121722  0.29880375  0.00043044  1.0
  Na  Na1  1  0.10588238  0.60068285  0.48613226  1.0
  Na  Na2  1  0.41479064  0.70844000  0.44952229  1.0
  Na  Na3  1  0.77618065  0.89957446  0.88508247  1.0
  Cl  Cl4  1  0.23525006  0.84339005  0.41027544  1.0
  Cl  Cl5  1  0.07245233  0.35645373  0.10813027  1.0
  Cl  Cl6  1  0.00017222  0.96401502  0.57102813  1.0
  Cl  Cl7  1  0.63388041  0.62260194  0.37451892  1.0
