# generated using pymatgen
data_NaCl
_symmetry_space_group_name_H-M   'P 1'
_cell_length_a   8.40456265
_cell_length_b   9.54819544
_cell_length_c   12.64303818
_cell_angle_alpha   90.00000000
_cell_angle_beta   156.09856989
_cell_angle_gamma   90.00000000
_symmetry_Int_Tables_number   1
_chemical_formula_structural   NaCl
_chemical_formula_sum   'Na4 Cl4'
_cell_volume   411.07319082
_cell_formula_units_Z   4
loop_
 _symmetry_equiv_pos_site_id
 _symmetry_equiv_pos_as_xyz
  1  'x, y, z'
loop_
 _atom_site_type_symbol
 _atom_site_label
 _atom_site_symmetry_multiplicity
 _atom_site_fract_x
 _atom_site_fract_y
 _atom_site_fract_z
 _atom_site_occupancy
  Na  Na0  1  0.22838500  0.00000000  0.06337412  1.0
  Na  Na1  1  0.02893739  0.50000000  0.06523060  1.0
  Na  Na2  1  0.29068636  0.00000000  0.42853328  1.0
  Na  Na3  1  0.81758197  0.50000000  0.17177798  1.0
  Cl  Cl4  1  0.46567779  0.00000000  0.45698375  1.0
  Cl  Cl5  1  0.22392348  0.50000000  0.94469277  1.0
  Cl  Cl6  1  0.15424809  0.00000000  0.56706253  1.0
  Cl  Cl7  1  0.79272042  0.50000000  0.67634103  1.0
