# generated using pymatgen
data_NaCl
_symmetry_space_group_name_H-M   'P 1'
_cell_length_a   6.43430234
_cell_length_b   6.43430234
_cell_length_c   6.43430234
_cell_angle_alpha   90.00000000
_cell_angle_beta   90.00000000
_cell_angle_gamma   90.00000000
_symmetry_Int_Tables_number   1
_chemical_formula_structural   NaCl
_chemical_formula_sum   'Na4 Cl4'
_cell_volume   266.38170359
_cell_formula_units_Z   4
loop_
 _symmetry_equiv_pos_site_id
 _symmetry_equiv_pos_as_xyz
  1  'x, y, z'
loop_
 _atom_site_type_symbol
 _atom_site_label
 _atom_site_symmetry_multiplicity
 _atom_site_fract_x
 _atom_site_fract_y
 _atom_site_fract_z
 _atom_site_occupancy
  Na  Na0  1  0.68537557  0.68537557  0.68537557  1.0
  Na  Na1  1  0.88305760  0.38305760  0.11694240  1.0
  Na  Na2  1  0.53361317  0.96638683  0.03361317  1.0
  Na  Na3  1  0.94380078  0.05619922  0.55619922  1.0
  Cl  Cl4  1  0.10286999  0.10286999  0.10286999  1.0
  Cl  Cl5  1  0.77591315  0.27591315  0.22408685  1.0
  Cl  Cl6  1  0.79529270  0.70470730  0.29529270  1.0
  Cl  Cl7  1  0.04721333  0.95278667  0.45278667  1.0
