# generated using pymatgen
data_NaCl
_symmetry_space_group_name_H-M   'P 1'
_cell_length_a   6.74089107
_cell_length_b   6.74089107
_cell_length_c   6.74089107
_cell_angle_alpha   90.00000000
_cell_angle_beta   90.00000000
_cell_angle_gamma   90.00000000
_symmetry_Int_Tables_number   1
_chemical_formula_structural   NaCl
_chemical_formula_sum   'Na4 Cl4'
_cell_volume   306.30347757
_cell_formula_units_Z   4
loop_
 _symmetry_equiv_pos_site_id
 _symmetry_equiv_pos_as_xyz
  1  'x, y, z'
loop_
 _atom_site_type_symbol
 _atom_site_label
 _atom_site_symmetry_multiplicity
 _atom_site_fract_x
 _atom_site_fract_y
 _atom_site_fract_z
 _atom_site_occupancy
  Na  Na0  1  0.73108810  0.73108810  0.73108810  1.0
  Na  Na1  1  0.37403611  0.87403611  0.62596389  1.0
  Na  Na2  1  0.42010579  0.07989421  0.92010579  1.0
  Na  Na3  1  0.87716264  0.12283736  0.62283736  1.0
  Cl  Cl4  1  0.27874484  0.27874484  0.27874484  1.0
  Cl  Cl5  1  0.09313562  0.59313562  0.90686438  1.0
  Cl  Cl6  1  0.74456185  0.75543815  0.24456185  1.0
  Cl  Cl7  1  0.12940402  0.87059598  0.37059598  1.0
