# generated using pymatgen
data_NaCl
_symmetry_space_group_name_H-M   'P 1'
_cell_length_a   4.22648195
_cell_length_b   5.17657407
_cell_length_c   14.36817047
_cell_angle_alpha   90.00000000
_cell_angle_beta   90.00000000
_cell_angle_gamma   90.00000000
_symmetry_Int_Tables_number   1
_chemical_formula_structural   NaCl
_chemical_formula_sum   'Na4 Cl4'
_cell_volume   314.35684629
_cell_formula_units_Z   4
loop_
 _symmetry_equiv_pos_site_id
 _symmetry_equiv_pos_as_xyz
  1  'x, y, z'
loop_
 _atom_site_type_symbol
 _atom_site_label
 _atom_site_symmetry_multiplicity
 _atom_site_fract_x
 _atom_site_fract_y
 _atom_site_fract_z
 _atom_site_occupancy
  Na  Na0  1  0.77022702  0.46225549  0.51980251  1.0
  Na  Na1  1  0.81104831  0.27434222  0.15613103  1.0
  Na  Na2  1  0.35489511  0.10073368  0.41179870  1.0
  Na  Na3  1  0.69669045  0.05862978  0.85995770  1.0
  Cl  Cl4  1  0.00000000  0.00000000  0.95099679  1.0
  Cl  Cl5  1  0.50000000  0.50000000  0.27492235  1.0
  Cl  Cl6  1  0.00000000  0.00000000  0.62676935  1.0
  Cl  Cl7  1  0.50000000  0.50000000  0.34391330  1.0
