# generated using pymatgen
data_NaCl
_symmetry_space_group_name_H-M   'P 1'
_cell_length_a   5.02360654
_cell_length_b   5.02360654
_cell_length_c   5.02360654
_cell_angle_alpha   90.00000000
_cell_angle_beta   90.00000000
_cell_angle_gamma   90.00000000
_symmetry_Int_Tables_number   1
_chemical_formula_structural   NaCl
_chemical_formula_sum   'Na4 Cl4'
_cell_volume   126.77886269
_cell_formula_units_Z   4
loop_
 _symmetry_equiv_pos_site_id
 _symmetry_equiv_pos_as_xyz
  1  'x, y, z'
loop_
 _atom_site_type_symbol
 _atom_site_label
 _atom_site_symmetry_multiplicity
 _atom_site_fract_x
 _atom_site_fract_y
 _atom_site_fract_z
 _atom_site_occupancy
  Na  Na0  1  0.69588356  0.69588356  0.69588356  1.0
  Na  Na1  1  0.36910665  0.86910665  0.63089335  1.0
  Na  Na2  1  0.12939469  0.37060531  0.62939469  1.0
  Na  Na3  1  0.97822015  0.02177985  0.52177985  1.0
  Cl  Cl4  1  0.14821665  0.14821665  0.14821665  1.0
  Cl  Cl5  1  0.80579817  0.30579817  0.19420183  1.0
  Cl  Cl6  1  0.37067803  0.12932197  0.87067803  1.0
  Cl  Cl7  1  0.16474315  0.83525685  0.33525685  1.0
