# generated using pymatgen
data_NaCl
_symmetry_space_group_name_H-M   'P 1'
_cell_length_a   4.23491526
_cell_length_b   4.23491526
_cell_length_c   4.23491526
_cell_angle_alpha   90.00000000
_cell_angle_beta   90.00000000
_cell_angle_gamma   90.00000000
_symmetry_Int_Tables_number   1
_chemical_formula_structural   NaCl
_chemical_formula_sum   'Na4 Cl4'
_cell_volume   75.95111847
_cell_formula_units_Z   4
loop_
 _symmetry_equiv_pos_site_id
 _symmetry_equiv_pos_as_xyz
  1  'x, y, z'
loop_
 _atom_site_type_symbol
 _atom_site_label
 _atom_site_symmetry_multiplicity
 _atom_site_fract_x
 _atom_site_fract_y
 _atom_site_fract_z
 _atom_site_occupancy
  Na  Na0  1  0.90092696  0.90092696  0.90092696  1.0
  Na  Na1  1  0.22698713  0.72698713  0.77301287  1.0
  Na  Na2  1  0.35959016  0.14040984  0.85959016  1.0
  Na  Na3  1  0.92025942  0.07974058  0.57974058  1.0
  Cl  Cl4  1  0.45120015  0.45120015  0.45120015  1.0
  Cl  Cl5  1  0.04474025  0.54474025  0.95525975  1.0
  Cl  Cl6  1  0.03300466  0.46699534  0.53300466  1.0
  Cl  Cl7  1  0.74656953  0.25343047  0.75343047  1.0
