# generated using pymatgen
data_NaCl
_symmetry_space_group_name_H-M   'P 1'
_cell_length_a   5.06550073
_cell_length_b   9.03121661
_cell_length_c   11.16300818
_cell_angle_alpha   90.00000000
_cell_angle_beta   31.21316018
_cell_angle_gamma   90.00000000
_symmetry_Int_Tables_number   1
_chemical_formula_structural   NaCl
_chemical_formula_sum   'Na4 Cl4'
_cell_volume   264.64698838
_cell_formula_units_Z   4
loop_
 _symmetry_equiv_pos_site_id
 _symmetry_equiv_pos_as_xyz
  1  'x, y, z'
loop_
 _atom_site_type_symbol
 _atom_site_label
 _atom_site_symmetry_multiplicity
 _atom_site_fract_x
 _atom_site_fract_y
 _atom_site_fract_z
 _atom_site_occupancy
  Na  Na0  1  0.76279158  0.00000000  0.77851178  1.0
  Na  Na1  1  0.14923987  0.50000000  0.48692112  1.0
  Na  Na2  1  0.48144426  0.00000000  0.28776787  1.0
  Na  Na3  1  0.02686198  0.50000000  0.81051265  1.0
  Cl  Cl4  1  0.05882815  0.00000000  0.97910990  1.0
  Cl  Cl5  1  0.87587379  0.50000000  0.96710699  1.0
  Cl  Cl6  1  0.17319917  0.00000000  0.01811684  1.0
  Cl  Cl7  1  0.17623727  0.50000000  0.11011004  1.0
