# generated using pymatgen
data_NaCl
_symmetry_space_group_name_H-M   'P 1'
_cell_length_a   3.74883823
_cell_length_b   9.23723375
_cell_length_c   8.26369819
_cell_angle_alpha   90.00000000
_cell_angle_beta   33.72531384
_cell_angle_gamma   90.00000000
_symmetry_Int_Tables_number   1
_chemical_formula_structural   NaCl
_chemical_formula_sum   'Na4 Cl4'
_cell_volume   158.88096809
_cell_formula_units_Z   4
loop_
 _symmetry_equiv_pos_site_id
 _symmetry_equiv_pos_as_xyz
  1  'x, y, z'
loop_
 _atom_site_type_symbol
 _atom_site_label
 _atom_site_symmetry_multiplicity
 _atom_site_fract_x
 _atom_site_fract_y
 _atom_site_fract_z
 _atom_site_occupancy
  Na  Na0  1  0.00000000  0.00000000  0.00000000  1.0
  Na  Na1  1  0.00000000  0.50000000  0.50000000  1.0
  Na  Na2  1  0.50000000  0.00000000  0.00000000  1.0
  Na  Na3  1  0.50000000  0.50000000  0.50000000  1.0
  Cl  Cl4  1  0.14433269  0.76873948  0.94914575  1.0
  Cl  Cl5  1  0.62189028  0.64845439  0.56378872  1.0
  Cl  Cl6  1  0.79867637  0.40441184  0.74097374  1.0
  Cl  Cl7  1  0.67332705  0.11706123  0.69594433  1.0
