# generated using pymatgen
data_NaCl
_symmetry_space_group_name_H-M   'P 1'
_cell_length_a   5.80454609
_cell_length_b   5.80454609
_cell_length_c   7.49472996
_cell_angle_alpha   90.00000000
_cell_angle_beta   90.00000000
_cell_angle_gamma   90.00000000
_symmetry_Int_Tables_number   1
_chemical_formula_structural   NaCl
_chemical_formula_sum   'Na4 Cl4'
_cell_volume   252.51810266
_cell_formula_units_Z   4
loop_
 _symmetry_equiv_pos_site_id
 _symmetry_equiv_pos_as_xyz
  1  'x, y, z'
loop_
 _atom_site_type_symbol
 _atom_site_label
 _atom_site_symmetry_multiplicity
 _atom_site_fract_x
 _atom_site_fract_y
 _atom_site_fract_z
 _atom_site_occupancy
  Na  Na0  1  0.68923937  0.68923937  0.00000000  1.0
  Na  Na1  1  0.42978863  0.42978863  0.50000000  1.0
  Na  Na2  1  0.95043348  0.04956652  0.25000000  1.0
  Na  Na3  1  0.04504954  0.95495046  0.75000000  1.0
  Cl  Cl4  1  0.15572899  0.15572899  0.00000000  1.0
  Cl  Cl5  1  0.58628773  0.58628773  0.50000000  1.0
  Cl  Cl6  1  0.16350409  0.83649591  0.25000000  1.0
  Cl  Cl7  1  0.32579190  0.67420810  0.75000000  1.0
