# generated using pymatgen
data_NaCl
_symmetry_space_group_name_H-M   'P 1'
_cell_length_a   8.11234024
_cell_length_b   7.40594559
_cell_length_c   5.86700386
_cell_angle_alpha   90.00000000
_cell_angle_beta   90.00000000
_cell_angle_gamma   90.00000000
_symmetry_Int_Tables_number   1
_chemical_formula_structural   NaCl
_chemical_formula_sum   'Na4 Cl4'
_cell_volume   352.48695425
_cell_formula_units_Z   4
loop_
 _symmetry_equiv_pos_site_id
 _symmetry_equiv_pos_as_xyz
  1  'x, y, z'
loop_
 _atom_site_type_symbol
 _atom_site_label
 _atom_site_symmetry_multiplicity
 _atom_site_fract_x
 _atom_site_fract_y
 _atom_site_fract_z
 _atom_site_occupancy
  Na  Na0  1  0.69491928  0.52137440  0.79581140  1.0
  Na  Na1  1  0.45482573  0.35297626  0.95193881  1.0
  Na  Na2  1  0.07576534  0.38465109  0.41868103  1.0
  Na  Na3  1  0.86613537  0.49872291  0.20159607  1.0
  Cl  Cl4  1  0.04738661  0.90989512  0.94523887  1.0
  Cl  Cl5  1  0.66004965  0.97001492  0.33026731  1.0
  Cl  Cl6  1  0.66666667  0.46354790  0.22845252  1.0
  Cl  Cl7  1  0.75738498  0.65598498  0.60481852  1.0
