# generated using pymatgen
data_NaCl
_symmetry_space_group_name_H-M   'P 1'
_cell_length_a   3.41626450
_cell_length_b   10.47855538
_cell_length_c   5.49800952
_cell_angle_alpha   90.00000000
_cell_angle_beta   90.00000000
_cell_angle_gamma   90.00000000
_symmetry_Int_Tables_number   1
_chemical_formula_structural   NaCl
_chemical_formula_sum   'Na4 Cl4'
_cell_volume   196.81508792
_cell_formula_units_Z   4
loop_
 _symmetry_equiv_pos_site_id
 _symmetry_equiv_pos_as_xyz
  1  'x, y, z'
loop_
 _atom_site_type_symbol
 _atom_site_label
 _atom_site_symmetry_multiplicity
 _atom_site_fract_x
 _atom_site_fract_y
 _atom_site_fract_z
 _atom_site_occupancy
  Na  Na0  1  0.00000000  0.61189040  0.74658353  1.0
  Na  Na1  1  0.50000000  0.39925320  0.05705009  1.0
  Na  Na2  1  0.00000000  0.64512203  0.41171277  1.0
  Na  Na3  1  0.50000000  0.56936464  0.27444102  1.0
  Cl  Cl4  1  0.00000000  0.84546500  0.85536744  1.0
  Cl  Cl5  1  0.50000000  0.79011642  0.36157692  1.0
  Cl  Cl6  1  0.00000000  0.58861127  0.23431536  1.0
  Cl  Cl7  1  0.50000000  0.65151073  0.71482492  1.0
