# generated using pymatgen
data_NaCl
_symmetry_space_group_name_H-M   'P 1'
_cell_length_a   3.37199112
_cell_length_b   3.37199112
_cell_length_c   12.58263961
_cell_angle_alpha   90.00000000
_cell_angle_beta   90.00000000
_cell_angle_gamma   90.00000000
_symmetry_Int_Tables_number   1
_chemical_formula_structural   NaCl
_chemical_formula_sum   'Na4 Cl4'
_cell_volume   143.06869057
_cell_formula_units_Z   4
loop_
 _symmetry_equiv_pos_site_id
 _symmetry_equiv_pos_as_xyz
  1  'x, y, z'
loop_
 _atom_site_type_symbol
 _atom_site_label
 _atom_site_symmetry_multiplicity
 _atom_site_fract_x
 _atom_site_fract_y
 _atom_site_fract_z
 _atom_site_occupancy
  Na  Na0  1  0.76852188  0.67235863  0.49504131  1.0
  Na  Na1  1  0.73908243  0.53295910  0.18384528  1.0
  Na  Na2  1  0.97861459  0.99914484  0.15887800  1.0
  Na  Na3  1  0.42028658  0.54276874  0.02283353  1.0
  Cl  Cl4  1  0.57121169  0.62564721  0.90617847  1.0
  Cl  Cl5  1  0.30109338  0.47638000  0.33857592  1.0
  Cl  Cl6  1  0.39842986  0.16054567  0.75036231  1.0
  Cl  Cl7  1  0.42618440  0.54549937  0.57130839  1.0
