# generated using pymatgen
data_NaCl
_symmetry_space_group_name_H-M   'P 1'
_cell_length_a   6.73987982
_cell_length_b   11.41851033
_cell_length_c   3.45885918
_cell_angle_alpha   90.00000000
_cell_angle_beta   90.00000000
_cell_angle_gamma   90.00000000
_symmetry_Int_Tables_number   1
_chemical_formula_structural   NaCl
_chemical_formula_sum   'Na4 Cl4'
_cell_volume   266.19168341
_cell_formula_units_Z   4
loop_
 _symmetry_equiv_pos_site_id
 _symmetry_equiv_pos_as_xyz
  1  'x, y, z'
loop_
 _atom_site_type_symbol
 _atom_site_label
 _atom_site_symmetry_multiplicity
 _atom_site_fract_x
 _atom_site_fract_y
 _atom_site_fract_z
 _atom_site_occupancy
  Na  Na0  1  0.76596805  0.65435722  0.82462201  1.0
  Na  Na1  1  0.37392750  0.82592459  0.88650410  1.0
  Na  Na2  1  0.50622899  0.53712327  0.01565690  1.0
  Na  Na3  1  0.11488704  0.04582372  0.16484228  1.0
  Cl  Cl4  1  0.13517578  0.12775259  0.90363180  1.0
  Cl  Cl5  1  0.06454656  0.85183862  0.69113642  1.0
  Cl  Cl6  1  0.89816758  0.02182196  0.26827159  1.0
  Cl  Cl7  1  0.12152132  0.89684240  0.86808075  1.0
