# generated using pymatgen
data_NaCl
_symmetry_space_group_name_H-M   'P 1'
_cell_length_a   4.16008867
_cell_length_b   12.83428412
_cell_length_c   7.61458690
_cell_angle_alpha   90.00000000
_cell_angle_beta   34.28191671
_cell_angle_gamma   90.00000000
_symmetry_Int_Tables_number   1
_chemical_formula_structural   NaCl
_chemical_formula_sum   'Na4 Cl4'
_cell_volume   228.99899504
_cell_formula_units_Z   4
loop_
 _symmetry_equiv_pos_site_id
 _symmetry_equiv_pos_as_xyz
  1  'x, y, z'
loop_
 _atom_site_type_symbol
 _atom_site_label
 _atom_site_symmetry_multiplicity
 _atom_site_fract_x
 _atom_site_fract_y
 _atom_site_fract_z
 _atom_site_occupancy
  Na  Na0  1  0.66696779  0.77919890  0.65716739  1.0
  Na  Na1  1  0.48093108  0.29420159  0.20284040  1.0
  Na  Na2  1  0.59054800  0.50581652  0.52566001  1.0
  Na  Na3  1  0.45179738  0.51736753  0.29109183  1.0
  Cl  Cl4  1  0.22327019  0.85751497  0.98327011  1.0
  Cl  Cl5  1  0.40016409  0.98152034  0.36241287  1.0
  Cl  Cl6  1  0.18384510  0.51485334  0.13517638  1.0
  Cl  Cl7  1  0.74458002  0.38982386  0.84563252  1.0
