# generated using pymatgen
data_NaCl
_symmetry_space_group_name_H-M   'P 1'
_cell_length_a   5.74069096
_cell_length_b   5.74069096
_cell_length_c   5.74069096
_cell_angle_alpha   90.00000000
_cell_angle_beta   90.00000000
_cell_angle_gamma   90.00000000
_symmetry_Int_Tables_number   1
_chemical_formula_structural   NaCl
_chemical_formula_sum   'Na4 Cl4'
_cell_volume   189.18752864
_cell_formula_units_Z   4
loop_
 _symmetry_equiv_pos_site_id
 _symmetry_equiv_pos_as_xyz
  1  'x, y, z'
loop_
 _atom_site_type_symbol
 _atom_site_label
 _atom_site_symmetry_multiplicity
 _atom_site_fract_x
 _atom_site_fract_y
 _atom_site_fract_z
 _atom_site_occupancy
  Na  Na0  1  0.79191192  0.79191192  0.79191192  1.0
  Na  Na1  1  0.20237298  0.70237298  0.79762702  1.0
  Na  Na2  1  0.47828384  0.02171616  0.97828384  1.0
  Na  Na3  1  0.73463999  0.26536001  0.76536001  1.0
  Cl  Cl4  1  0.21108794  0.21108794  0.21108794  1.0
  Cl  Cl5  1  0.86262267  0.36262267  0.13737733  1.0
  Cl  Cl6  1  0.94833900  0.55166100  0.44833900  1.0
  Cl  Cl7  1  0.06748421  0.93251579  0.43251579  1.0
