# generated using pymatgen
data_NaCl
_symmetry_space_group_name_H-M   'P 1'
_cell_length_a   8.43631759
_cell_length_b   10.43664692
_cell_length_c   5.54534766
_cell_angle_alpha   90.00000000
_cell_angle_beta   32.23156852
_cell_angle_gamma   90.00000000
_symmetry_Int_Tables_number   1
_chemical_formula_structural   NaCl
_chemical_formula_sum   'Na4 Cl4'
_cell_volume   260.40470270
_cell_formula_units_Z   4
loop_
 _symmetry_equiv_pos_site_id
 _symmetry_equiv_pos_as_xyz
  1  'x, y, z'
loop_
 _atom_site_type_symbol
 _atom_site_label
 _atom_site_symmetry_multiplicity
 _atom_site_fract_x
 _atom_site_fract_y
 _atom_site_fract_z
 _atom_site_occupancy
  Na  Na0  1  0.69902346  0.76739880  0.70562828  1.0
  Na  Na1  1  0.46329722  0.16698001  0.36484853  1.0
  Na  Na2  1  0.66012322  0.63702306  0.39313756  1.0
  Na  Na3  1  0.55229881  0.94951725  0.34012046  1.0
  Cl  Cl4  1  0.13254900  0.89047237  0.95987621  1.0
  Cl  Cl5  1  0.71283639  0.68394037  0.02085629  1.0
  Cl  Cl6  1  0.06370839  0.70555568  0.21709767  1.0
  Cl  Cl7  1  0.21218838  0.16459033  0.73842344  1.0
