# generated using pymatgen
data_NaCl
_symmetry_space_group_name_H-M   'P 1'
_cell_length_a   6.47331716
_cell_length_b   3.02562373
_cell_length_c   15.05147277
_cell_angle_alpha   90.00000000
_cell_angle_beta   90.00000000
_cell_angle_gamma   90.00000000
_symmetry_Int_Tables_number   1
_chemical_formula_structural   NaCl
_chemical_formula_sum   'Na4 Cl4'
_cell_volume   294.79546668
_cell_formula_units_Z   4
loop_
 _symmetry_equiv_pos_site_id
 _symmetry_equiv_pos_as_xyz
  1  'x, y, z'
loop_
 _atom_site_type_symbol
 _atom_site_label
 _atom_site_symmetry_multiplicity
 _atom_site_fract_x
 _atom_site_fract_y
 _atom_site_fract_z
 _atom_site_occupancy
  Na  Na0  1  0.60807777  0.65082046  0.65819780  1.0
  Na  Na1  1  0.96560533  0.06472703  0.86776986  1.0
  Na  Na2  1  0.89062656  0.19163078  0.06289976  1.0
  Na  Na3  1  0.14042908  0.28280867  0.84489055  1.0
  Cl  Cl4  1  0.40942517  0.53871341  0.10471483  1.0
  Cl  Cl5  1  0.33073296  0.01974071  0.44772750  1.0
  Cl  Cl6  1  0.42728066  0.43092994  0.98176235  1.0
  Cl  Cl7  1  0.60827660  0.79649550  0.39970135  1.0
