# generated using pymatgen
data_NaCl
_symmetry_space_group_name_H-M   'P 1'
_cell_length_a   5.74897493
_cell_length_b   5.74897493
_cell_length_c   6.22860987
_cell_angle_alpha   90.00000000
_cell_angle_beta   90.00000000
_cell_angle_gamma   90.00000000
_symmetry_Int_Tables_number   1
_chemical_formula_structural   NaCl
_chemical_formula_sum   'Na4 Cl4'
_cell_volume   205.85999562
_cell_formula_units_Z   4
loop_
 _symmetry_equiv_pos_site_id
 _symmetry_equiv_pos_as_xyz
  1  'x, y, z'
loop_
 _atom_site_type_symbol
 _atom_site_label
 _atom_site_symmetry_multiplicity
 _atom_site_fract_x
 _atom_site_fract_y
 _atom_site_fract_z
 _atom_site_occupancy
  Na  Na0  1  0.71793468  0.69435462  0.69721920  1.0
  Na  Na1  1  0.84582378  0.31530156  0.00932709  1.0
  Na  Na2  1  0.45884107  0.63846389  0.90009989  1.0
  Na  Na3  1  0.41970900  0.50964117  0.52959422  1.0
  Cl  Cl4  1  0.03906862  0.84697148  0.96288668  1.0
  Cl  Cl5  1  0.52707936  0.49902003  0.34562676  1.0
  Cl  Cl6  1  0.45759200  0.04495583  0.35272924  1.0
  Cl  Cl7  1  0.61043131  0.29252050  0.86202608  1.0
