# generated using pymatgen
data_NaCl
_symmetry_space_group_name_H-M   'P 1'
_cell_length_a   5.26464141
_cell_length_b   11.25128635
_cell_length_c   10.65052303
_cell_angle_alpha   90.00000000
_cell_angle_beta   39.07228962
_cell_angle_gamma   90.00000000
_symmetry_Int_Tables_number   1
_chemical_formula_structural   NaCl
_chemical_formula_sum   'Na4 Cl4'
_cell_volume   397.63948053
_cell_formula_units_Z   4
loop_
 _symmetry_equiv_pos_site_id
 _symmetry_equiv_pos_as_xyz
  1  'x, y, z'
loop_
 _atom_site_type_symbol
 _atom_site_label
 _atom_site_symmetry_multiplicity
 _atom_site_fract_x
 _atom_site_fract_y
 _atom_site_fract_z
 _atom_site_occupancy
  Na  Na0  1  0.81335242  0.57963475  0.09058691  1.0
  Na  Na1  1  0.66308777  0.19053060  0.80506979  1.0
  Na  Na2  1  0.42666609  0.86089130  0.17924258  1.0
  Na  Na3  1  0.12633116  0.04092214  0.93501483  1.0
  Cl  Cl4  1  0.15782126  0.53271614  0.83880943  1.0
  Cl  Cl5  1  0.73880777  0.33005097  0.25386303  1.0
  Cl  Cl6  1  0.47411408  0.22057155  0.67892605  1.0
  Cl  Cl7  1  0.85650516  0.19134977  0.12467917  1.0
