# generated using pymatgen
data_NaCl
_symmetry_space_group_name_H-M   'P 1'
_cell_length_a   5.14821397
_cell_length_b   5.14821397
_cell_length_c   15.30382473
_cell_angle_alpha   90.00000000
_cell_angle_beta   90.00000000
_cell_angle_gamma   90.00000000
_symmetry_Int_Tables_number   1
_chemical_formula_structural   NaCl
_chemical_formula_sum   'Na4 Cl4'
_cell_volume   405.61420939
_cell_formula_units_Z   4
loop_
 _symmetry_equiv_pos_site_id
 _symmetry_equiv_pos_as_xyz
  1  'x, y, z'
loop_
 _atom_site_type_symbol
 _atom_site_label
 _atom_site_symmetry_multiplicity
 _atom_site_fract_x
 _atom_site_fract_y
 _atom_site_fract_z
 _atom_site_occupancy
  Na  Na0  1  0.79276816  0.79276816  0.00000000  1.0
  Na  Na1  1  0.98145911  0.98145911  0.50000000  1.0
  Na  Na2  1  0.20487205  0.79512795  0.25000000  1.0
  Na  Na3  1  0.96976970  0.03023030  0.75000000  1.0
  Cl  Cl4  1  0.35671031  0.35671031  0.00000000  1.0
  Cl  Cl5  1  0.65681271  0.65681271  0.50000000  1.0
  Cl  Cl6  1  0.93494212  0.06505788  0.25000000  1.0
  Cl  Cl7  1  0.39194381  0.60805619  0.75000000  1.0
