# generated using pymatgen
data_NaCl
_symmetry_space_group_name_H-M   'P 1'
_cell_length_a   5.65234447
_cell_length_b   5.65234447
_cell_length_c   5.65234447
_cell_angle_alpha   90.00000000
_cell_angle_beta   90.00000000
_cell_angle_gamma   90.00000000
_symmetry_Int_Tables_number   1
_chemical_formula_structural   NaCl
_chemical_formula_sum   'Na4 Cl4'
_cell_volume   180.58674221
_cell_formula_units_Z   4
loop_
 _symmetry_equiv_pos_site_id
 _symmetry_equiv_pos_as_xyz
  1  'x, y, z'
loop_
 _atom_site_type_symbol
 _atom_site_label
 _atom_site_symmetry_multiplicity
 _atom_site_fract_x
 _atom_site_fract_y
 _atom_site_fract_z
 _atom_site_occupancy
  Na  Na0  1  0.79635644  0.79635644  0.79635644  1.0
  Na  Na1  1  0.48217317  0.98217317  0.51782683  1.0
  Na  Na2  1  0.67107351  0.82892649  0.17107351  1.0
  Na  Na3  1  0.33820904  0.66179096  0.16179096  1.0
  Cl  Cl4  1  0.46429770  0.46429770  0.46429770  1.0
  Cl  Cl5  1  0.08961703  0.58961703  0.91038297  1.0
  Cl  Cl6  1  0.19922296  0.30077704  0.69922296  1.0
  Cl  Cl7  1  0.18567596  0.81432404  0.31432404  1.0
