# generated using pymatgen
data_NaCl
_symmetry_space_group_name_H-M   'P 1'
_cell_length_a   4.15815087
_cell_length_b   11.62333755
_cell_length_c   14.35771049
_cell_angle_alpha   90.00000000
_cell_angle_beta   159.80561652
_cell_angle_gamma   90.00000000
_symmetry_Int_Tables_number   1
_chemical_formula_structural   NaCl
_chemical_formula_sum   'Na4 Cl4'
_cell_volume   239.54928116
_cell_formula_units_Z   4
loop_
 _symmetry_equiv_pos_site_id
 _symmetry_equiv_pos_as_xyz
  1  'x, y, z'
loop_
 _atom_site_type_symbol
 _atom_site_label
 _atom_site_symmetry_multiplicity
 _atom_site_fract_x
 _atom_site_fract_y
 _atom_site_fract_z
 _atom_site_occupancy
  Na  Na0  1  0.94017271  0.39131948  0.31531488  1.0
  Na  Na1  1  0.93374234  0.96751650  0.98285125  1.0
  Na  Na2  1  0.22711439  0.69171786  0.04299441  1.0
  Na  Na3  1  0.93076063  0.53639524  0.84400722  1.0
  Cl  Cl4  1  0.23360154  0.22973237  0.76677492  1.0
  Cl  Cl5  1  0.78060243  0.31310203  0.19423668  1.0
  Cl  Cl6  1  0.08942739  0.08827909  0.70696481  1.0
  Cl  Cl7  1  0.64543194  0.21022264  0.38683573  1.0
