# generated using pymatgen
data_NaCl
_symmetry_space_group_name_H-M   'P 1'
_cell_length_a   3.46321147
_cell_length_b   3.46321147
_cell_length_c   14.13668508
_cell_angle_alpha   90.00000000
_cell_angle_beta   90.00000000
_cell_angle_gamma   120.00000000
_symmetry_Int_Tables_number   1
_chemical_formula_structural   NaCl
_chemical_formula_sum   'Na4 Cl4'
_cell_volume   146.83724835
_cell_formula_units_Z   4
loop_
 _symmetry_equiv_pos_site_id
 _symmetry_equiv_pos_as_xyz
  1  'x, y, z'
loop_
 _atom_site_type_symbol
 _atom_site_label
 _atom_site_symmetry_multiplicity
 _atom_site_fract_x
 _atom_site_fract_y
 _atom_site_fract_z
 _atom_site_occupancy
  Na  Na0  1  0.33333333  0.66666667  0.58435247  1.0
  Na  Na1  1  0.66666667  0.33333333  0.02272739  1.0
  Na  Na2  1  0.33333333  0.66666667  0.02011489  1.0
  Na  Na3  1  0.66666667  0.33333333  0.77873464  1.0
  Cl  Cl4  1  0.33333333  0.66666667  0.70719599  1.0
  Cl  Cl5  1  0.66666667  0.33333333  0.93588963  1.0
  Cl  Cl6  1  0.33333333  0.66666667  0.85161693  1.0
  Cl  Cl7  1  0.66666667  0.33333333  0.11434658  1.0
