# generated using pymatgen
data_NaCl
_symmetry_space_group_name_H-M   'P 1'
_cell_length_a   3.61673004
_cell_length_b   4.24640322
_cell_length_c   16.44110023
_cell_angle_alpha   90.00000000
_cell_angle_beta   117.33988222
_cell_angle_gamma   90.00000000
_symmetry_Int_Tables_number   1
_chemical_formula_structural   NaCl
_chemical_formula_sum   'Na4 Cl4'
_cell_volume   224.29870644
_cell_formula_units_Z   4
loop_
 _symmetry_equiv_pos_site_id
 _symmetry_equiv_pos_as_xyz
  1  'x, y, z'
loop_
 _atom_site_type_symbol
 _atom_site_label
 _atom_site_symmetry_multiplicity
 _atom_site_fract_x
 _atom_site_fract_y
 _atom_site_fract_z
 _atom_site_occupancy
  Na  Na0  1  0.72500937  0.50000000  0.27880045  1.0
  Na  Na1  1  0.09310376  0.50000000  0.20307662  1.0
  Na  Na2  1  0.98490857  0.08771648  0.39577195  1.0
  Na  Na3  1  0.51913983  0.18221758  0.53965342  1.0
  Cl  Cl4  1  0.28837398  0.00000000  0.84036420  1.0
  Cl  Cl5  1  0.35768174  0.50000000  0.60776174  1.0
  Cl  Cl6  1  0.21562585  0.07140473  0.11646892  1.0
  Cl  Cl7  1  0.97091125  0.52755078  0.11356800  1.0
