# generated using pymatgen
data_NaCl
_symmetry_space_group_name_H-M   'P 1'
_cell_length_a   4.56547570
_cell_length_b   4.56547570
_cell_length_c   14.59681136
_cell_angle_alpha   90.00000000
_cell_angle_beta   90.00000000
_cell_angle_gamma   90.00000000
_symmetry_Int_Tables_number   1
_chemical_formula_structural   NaCl
_chemical_formula_sum   'Na4 Cl4'
_cell_volume   304.24963553
_cell_formula_units_Z   4
loop_
 _symmetry_equiv_pos_site_id
 _symmetry_equiv_pos_as_xyz
  1  'x, y, z'
loop_
 _atom_site_type_symbol
 _atom_site_label
 _atom_site_symmetry_multiplicity
 _atom_site_fract_x
 _atom_site_fract_y
 _atom_site_fract_z
 _atom_site_occupancy
  Na  Na0  1  0.75519589  0.25519589  0.26858551  1.0
  Na  Na1  1  0.98141510  0.48141510  0.12012421  1.0
  Na  Na2  1  0.70750647  0.79249353  0.46805036  1.0
  Na  Na3  1  0.09595809  0.40404191  0.46244089  1.0
  Cl  Cl4  1  0.00000000  0.00000000  0.80181522  1.0
  Cl  Cl5  1  0.50000000  0.50000000  0.57585776  1.0
  Cl  Cl6  1  0.00000000  0.00000000  0.06575861  1.0
  Cl  Cl7  1  0.50000000  0.50000000  0.18388353  1.0
