# generated using pymatgen
data_NaCl
_symmetry_space_group_name_H-M   'P 1'
_cell_length_a   4.22649928
_cell_length_b   5.44472484
_cell_length_c   13.94979108
_cell_angle_alpha   90.00000000
_cell_angle_beta   93.91713529
_cell_angle_gamma   90.00000000
_symmetry_Int_Tables_number   1
_chemical_formula_structural   NaCl
_chemical_formula_sum   'Na4 Cl4'
_cell_volume   320.26442082
_cell_formula_units_Z   4
loop_
 _symmetry_equiv_pos_site_id
 _symmetry_equiv_pos_as_xyz
  1  'x, y, z'
loop_
 _atom_site_type_symbol
 _atom_site_label
 _atom_site_symmetry_multiplicity
 _atom_site_fract_x
 _atom_site_fract_y
 _atom_site_fract_z
 _atom_site_occupancy
  Na  Na0  1  0.00000000  0.67497497  0.50000000  1.0
  Na  Na1  1  0.50000000  0.92220764  0.50000000  1.0
  Na  Na2  1  0.00000000  0.14499688  0.50000000  1.0
  Na  Na3  1  0.50000000  0.35999073  0.50000000  1.0
  Cl  Cl4  1  0.24346529  0.05042789  0.82830198  1.0
  Cl  Cl5  1  0.70580404  0.29679919  0.43387001  1.0
  Cl  Cl6  1  0.82148791  0.45694909  0.00123740  1.0
  Cl  Cl7  1  0.60274138  0.01325958  0.80861015  1.0
