# generated using pymatgen
data_NaCl
_symmetry_space_group_name_H-M   'P 1'
_cell_length_a   6.17274536
_cell_length_b   6.17274536
_cell_length_c   5.88015556
_cell_angle_alpha   90.00000000
_cell_angle_beta   90.00000000
_cell_angle_gamma   90.00000000
_symmetry_Int_Tables_number   1
_chemical_formula_structural   NaCl
_chemical_formula_sum   'Na4 Cl4'
_cell_volume   224.05030471
_cell_formula_units_Z   4
loop_
 _symmetry_equiv_pos_site_id
 _symmetry_equiv_pos_as_xyz
  1  'x, y, z'
loop_
 _atom_site_type_symbol
 _atom_site_label
 _atom_site_symmetry_multiplicity
 _atom_site_fract_x
 _atom_site_fract_y
 _atom_site_fract_z
 _atom_site_occupancy
  Na  Na0  1  0.53903951  0.57252406  0.84993360  1.0
  Na  Na1  1  0.68714952  0.93101390  0.57243321  1.0
  Na  Na2  1  0.74747643  0.43031270  0.88456009  1.0
  Na  Na3  1  0.31205600  0.20878761  0.13722545  1.0
  Cl  Cl4  1  0.04903759  0.03193963  0.83836318  1.0
  Cl  Cl5  1  0.49734789  0.37118409  0.20749564  1.0
  Cl  Cl6  1  0.37727660  0.71578694  0.52860598  1.0
  Cl  Cl7  1  0.54399919  0.09144920  0.00452715  1.0
