# generated using pymatgen
data_NaCl
_symmetry_space_group_name_H-M   'P 1'
_cell_length_a   3.59598097
_cell_length_b   5.28514734
_cell_length_c   15.04689011
_cell_angle_alpha   90.00000000
_cell_angle_beta   90.00000000
_cell_angle_gamma   90.00000000
_symmetry_Int_Tables_number   1
_chemical_formula_structural   NaCl
_chemical_formula_sum   'Na4 Cl4'
_cell_volume   285.97049898
_cell_formula_units_Z   4
loop_
 _symmetry_equiv_pos_site_id
 _symmetry_equiv_pos_as_xyz
  1  'x, y, z'
loop_
 _atom_site_type_symbol
 _atom_site_label
 _atom_site_symmetry_multiplicity
 _atom_site_fract_x
 _atom_site_fract_y
 _atom_site_fract_z
 _atom_site_occupancy
  Na  Na0  1  0.81205199  0.25000000  0.26437911  1.0
  Na  Na1  1  0.96941003  0.75000000  0.57658344  1.0
  Na  Na2  1  0.81152369  0.75000000  0.94757201  1.0
  Na  Na3  1  0.41025906  0.25000000  0.90511165  1.0
  Cl  Cl4  1  0.50000000  0.00000000  0.65351969  1.0
  Cl  Cl5  1  0.50000000  0.50000000  0.45948565  1.0
  Cl  Cl6  1  0.50000000  0.50000000  0.57227824  1.0
  Cl  Cl7  1  0.50000000  0.00000000  0.80579671  1.0
