# generated using pymatgen
data_NaCl
_symmetry_space_group_name_H-M   'P 1'
_cell_length_a   3.51194940
_cell_length_b   3.51194940
_cell_length_c   15.68570983
_cell_angle_alpha   90.00000000
_cell_angle_beta   90.00000000
_cell_angle_gamma   90.00000000
_symmetry_Int_Tables_number   1
_chemical_formula_structural   NaCl
_chemical_formula_sum   'Na4 Cl4'
_cell_volume   193.46422890
_cell_formula_units_Z   4
loop_
 _symmetry_equiv_pos_site_id
 _symmetry_equiv_pos_as_xyz
  1  'x, y, z'
loop_
 _atom_site_type_symbol
 _atom_site_label
 _atom_site_symmetry_multiplicity
 _atom_site_fract_x
 _atom_site_fract_y
 _atom_site_fract_z
 _atom_site_occupancy
  Na  Na0  1  0.73536908  0.77022413  0.31236535  1.0
  Na  Na1  1  0.87294509  0.60286008  0.77868752  1.0
  Na  Na2  1  0.85628071  0.79985223  0.65888932  1.0
  Na  Na3  1  0.83879663  0.53106006  0.22577459  1.0
  Cl  Cl4  1  0.15783457  0.00008843  0.78441165  1.0
  Cl  Cl5  1  0.68566803  0.73729049  0.07678187  1.0
  Cl  Cl6  1  0.02014871  0.32093852  0.33611495  1.0
  Cl  Cl7  1  0.42656315  0.10487765  0.90383706  1.0
