# generated using pymatgen
data_NaCl
_symmetry_space_group_name_H-M   'P 1'
_cell_length_a   4.13422411
_cell_length_b   12.62807990
_cell_length_c   6.68275608
_cell_angle_alpha   90.00000000
_cell_angle_beta   90.00000000
_cell_angle_gamma   90.00000000
_symmetry_Int_Tables_number   1
_chemical_formula_structural   NaCl
_chemical_formula_sum   'Na4 Cl4'
_cell_volume   348.88873427
_cell_formula_units_Z   4
loop_
 _symmetry_equiv_pos_site_id
 _symmetry_equiv_pos_as_xyz
  1  'x, y, z'
loop_
 _atom_site_type_symbol
 _atom_site_label
 _atom_site_symmetry_multiplicity
 _atom_site_fract_x
 _atom_site_fract_y
 _atom_site_fract_z
 _atom_site_occupancy
  Na  Na0  1  0.89833196  0.32662731  0.44694444  1.0
  Na  Na1  1  0.30077390  0.84751799  0.58532441  1.0
  Na  Na2  1  0.12765839  0.44929530  0.19303182  1.0
  Na  Na3  1  0.78425044  0.48397618  0.52041267  1.0
  Cl  Cl4  1  0.30403761  0.13135423  0.80688551  1.0
  Cl  Cl5  1  0.97961139  0.53089957  0.37466593  1.0
  Cl  Cl6  1  0.06039494  0.93851906  0.42787154  1.0
  Cl  Cl7  1  0.70333646  0.96109399  0.01277133  1.0
