# generated using pymatgen
data_NaCl
_symmetry_space_group_name_H-M   'P 1'
_cell_length_a   5.93308122
_cell_length_b   5.93308122
_cell_length_c   5.93308122
_cell_angle_alpha   90.00000000
_cell_angle_beta   90.00000000
_cell_angle_gamma   90.00000000
_symmetry_Int_Tables_number   1
_chemical_formula_structural   NaCl
_chemical_formula_sum   'Na4 Cl4'
_cell_volume   208.85307831
_cell_formula_units_Z   4
loop_
 _symmetry_equiv_pos_site_id
 _symmetry_equiv_pos_as_xyz
  1  'x, y, z'
loop_
 _atom_site_type_symbol
 _atom_site_label
 _atom_site_symmetry_multiplicity
 _atom_site_fract_x
 _atom_site_fract_y
 _atom_site_fract_z
 _atom_site_occupancy
  Na  Na0  1  0.69072664  0.69072664  0.69072664  1.0
  Na  Na1  1  0.47162266  0.97162266  0.52837734  1.0
  Na  Na2  1  0.00523757  0.49476243  0.50523757  1.0
  Na  Na3  1  0.99790257  0.00209743  0.50209743  1.0
  Cl  Cl4  1  0.17200687  0.17200687  0.17200687  1.0
  Cl  Cl5  1  0.17869438  0.67869438  0.82130562  1.0
  Cl  Cl6  1  0.83406974  0.66593026  0.33406974  1.0
  Cl  Cl7  1  0.44103635  0.55896365  0.05896365  1.0
