# generated using pymatgen
data_NaCl
_symmetry_space_group_name_H-M   'P 1'
_cell_length_a   5.11233886
_cell_length_b   5.11233886
_cell_length_c   8.71618239
_cell_angle_alpha   90.00000000
_cell_angle_beta   90.00000000
_cell_angle_gamma   90.00000000
_symmetry_Int_Tables_number   1
_chemical_formula_structural   NaCl
_chemical_formula_sum   'Na4 Cl4'
_cell_volume   227.80621807
_cell_formula_units_Z   4
loop_
 _symmetry_equiv_pos_site_id
 _symmetry_equiv_pos_as_xyz
  1  'x, y, z'
loop_
 _atom_site_type_symbol
 _atom_site_label
 _atom_site_symmetry_multiplicity
 _atom_site_fract_x
 _atom_site_fract_y
 _atom_site_fract_z
 _atom_site_occupancy
  Na  Na0  1  0.00000000  0.50000000  0.74395606  1.0
  Na  Na1  1  0.00000000  0.50000000  0.58592652  1.0
  Na  Na2  1  0.50000000  0.00000000  0.13589421  1.0
  Na  Na3  1  0.50000000  0.00000000  0.31531438  1.0
  Cl  Cl4  1  0.08522803  0.08522803  0.79467380  1.0
  Cl  Cl5  1  0.60811887  0.60811887  0.75159085  1.0
  Cl  Cl6  1  0.71276381  0.28723619  0.76163902  1.0
  Cl  Cl7  1  0.41970101  0.58029899  0.77929672  1.0
