# generated using pymatgen
data_NaCl
_symmetry_space_group_name_H-M   'P 1'
_cell_length_a   3.94983696
_cell_length_b   6.10584638
_cell_length_c   16.89222876
_cell_angle_alpha   90.00000000
_cell_angle_beta   90.00000000
_cell_angle_gamma   90.00000000
_symmetry_Int_Tables_number   1
_chemical_formula_structural   NaCl
_chemical_formula_sum   'Na4 Cl4'
_cell_volume   407.39153144
_cell_formula_units_Z   4
loop_
 _symmetry_equiv_pos_site_id
 _symmetry_equiv_pos_as_xyz
  1  'x, y, z'
loop_
 _atom_site_type_symbol
 _atom_site_label
 _atom_site_symmetry_multiplicity
 _atom_site_fract_x
 _atom_site_fract_y
 _atom_site_fract_z
 _atom_site_occupancy
  Na  Na0  1  0.77697379  0.66637115  0.79828225  1.0
  Na  Na1  1  0.46561574  0.53345096  0.65648832  1.0
  Na  Na2  1  0.74343876  0.60839032  0.04818553  1.0
  Na  Na3  1  0.12178480  0.57049851  0.64814963  1.0
  Cl  Cl4  1  0.20054903  0.03764134  0.70554666  1.0
  Cl  Cl5  1  0.16110563  0.38645326  0.23064454  1.0
  Cl  Cl6  1  0.18204500  0.98451982  0.49950886  1.0
  Cl  Cl7  1  0.44760427  0.98156488  0.83881639  1.0
