# generated using pymatgen
data_NaCl
_symmetry_space_group_name_H-M   'P 1'
_cell_length_a   5.79147392
_cell_length_b   2.91181027
_cell_length_c   14.40658188
_cell_angle_alpha   90.00000000
_cell_angle_beta   90.00000000
_cell_angle_gamma   90.00000000
_symmetry_Int_Tables_number   1
_chemical_formula_structural   NaCl
_chemical_formula_sum   'Na4 Cl4'
_cell_volume   242.94788931
_cell_formula_units_Z   4
loop_
 _symmetry_equiv_pos_site_id
 _symmetry_equiv_pos_as_xyz
  1  'x, y, z'
loop_
 _atom_site_type_symbol
 _atom_site_label
 _atom_site_symmetry_multiplicity
 _atom_site_fract_x
 _atom_site_fract_y
 _atom_site_fract_z
 _atom_site_occupancy
  Na  Na0  1  0.74644196  0.70105241  0.32520159  1.0
  Na  Na1  1  0.91948877  0.55483517  0.20025715  1.0
  Na  Na2  1  0.44469725  0.89409410  0.37240562  1.0
  Na  Na3  1  0.94964182  0.84502768  0.55614308  1.0
  Cl  Cl4  1  0.00000000  0.00000000  0.75872420  1.0
  Cl  Cl5  1  0.50000000  0.00000000  0.56890333  1.0
  Cl  Cl6  1  0.00000000  0.00000000  0.09464367  1.0
  Cl  Cl7  1  0.50000000  0.00000000  0.08791512  1.0
