# generated using pymatgen
data_NaCl
_symmetry_space_group_name_H-M   'P 1'
_cell_length_a   5.56252901
_cell_length_b   5.56252901
_cell_length_c   5.56252901
_cell_angle_alpha   90.00000000
_cell_angle_beta   90.00000000
_cell_angle_gamma   90.00000000
_symmetry_Int_Tables_number   1
_chemical_formula_structural   NaCl
_chemical_formula_sum   'Na4 Cl4'
_cell_volume   172.11426511
_cell_formula_units_Z   4
loop_
 _symmetry_equiv_pos_site_id
 _symmetry_equiv_pos_as_xyz
  1  'x, y, z'
loop_
 _atom_site_type_symbol
 _atom_site_label
 _atom_site_symmetry_multiplicity
 _atom_site_fract_x
 _atom_site_fract_y
 _atom_site_fract_z
 _atom_site_occupancy
  Na  Na0  1  0.61017412  0.61017412  0.61017412  1.0
  Na  Na1  1  0.19206697  0.69206697  0.80793303  1.0
  Na  Na2  1  0.48239463  0.01760537  0.98239463  1.0
  Na  Na3  1  0.25831820  0.74168180  0.24168180  1.0
  Cl  Cl4  1  0.06883509  0.06883509  0.06883509  1.0
  Cl  Cl5  1  0.06847928  0.56847928  0.93152072  1.0
  Cl  Cl6  1  0.26397755  0.23602245  0.76397755  1.0
  Cl  Cl7  1  0.38693499  0.61306501  0.11306501  1.0
