# generated using pymatgen
data_NaCl
_symmetry_space_group_name_H-M   'P 1'
_cell_length_a   5.06171409
_cell_length_b   5.06171409
_cell_length_c   10.36495724
_cell_angle_alpha   90.00000000
_cell_angle_beta   90.00000000
_cell_angle_gamma   90.00000000
_symmetry_Int_Tables_number   1
_chemical_formula_structural   NaCl
_chemical_formula_sum   'Na4 Cl4'
_cell_volume   265.56004632
_cell_formula_units_Z   4
loop_
 _symmetry_equiv_pos_site_id
 _symmetry_equiv_pos_as_xyz
  1  'x, y, z'
loop_
 _atom_site_type_symbol
 _atom_site_label
 _atom_site_symmetry_multiplicity
 _atom_site_fract_x
 _atom_site_fract_y
 _atom_site_fract_z
 _atom_site_occupancy
  Na  Na0  1  0.55236153  0.57540705  0.84385027  1.0
  Na  Na1  1  0.57363013  0.94082589  0.84382314  1.0
  Na  Na2  1  0.97682061  0.37139852  0.78494553  1.0
  Na  Na3  1  0.28749067  0.23959507  0.13213723  1.0
  Cl  Cl4  1  0.46690736  0.04361877  0.71115473  1.0
  Cl  Cl5  1  0.62031366  0.40832896  0.24328674  1.0
  Cl  Cl6  1  0.07745418  0.69707718  0.48841352  1.0
  Cl  Cl7  1  0.62713051  0.10521780  0.97915242  1.0
