# generated using pymatgen
data_NaCl
_symmetry_space_group_name_H-M   'P 1'
_cell_length_a   5.88271722
_cell_length_b   2.75723060
_cell_length_c   15.35945271
_cell_angle_alpha   90.00000000
_cell_angle_beta   112.16916150
_cell_angle_gamma   90.00000000
_symmetry_Int_Tables_number   1
_chemical_formula_structural   NaCl
_chemical_formula_sum   'Na4 Cl4'
_cell_volume   230.71318196
_cell_formula_units_Z   4
loop_
 _symmetry_equiv_pos_site_id
 _symmetry_equiv_pos_as_xyz
  1  'x, y, z'
loop_
 _atom_site_type_symbol
 _atom_site_label
 _atom_site_symmetry_multiplicity
 _atom_site_fract_x
 _atom_site_fract_y
 _atom_site_fract_z
 _atom_site_occupancy
  Na  Na0  1  0.73377523  0.53247140  0.35409897  1.0
  Na  Na1  1  0.31574874  0.57192379  0.64152630  1.0
  Na  Na2  1  0.79117376  0.19463006  0.50261205  1.0
  Na  Na3  1  0.56582470  0.10193080  0.01818120  1.0
  Cl  Cl4  1  0.16196477  0.56531316  0.86780271  1.0
  Cl  Cl5  1  0.32289665  0.71553288  0.16084079  1.0
  Cl  Cl6  1  0.83075156  0.92954928  0.11908993  1.0
  Cl  Cl7  1  0.88249566  0.48617658  0.58969080  1.0
