# generated using pymatgen
data_NaCl
_symmetry_space_group_name_H-M   'P 1'
_cell_length_a   3.67862876
_cell_length_b   5.86556056
_cell_length_c   13.73324501
_cell_angle_alpha   90.00000000
_cell_angle_beta   90.00000000
_cell_angle_gamma   90.00000000
_symmetry_Int_Tables_number   1
_chemical_formula_structural   NaCl
_chemical_formula_sum   'Na4 Cl4'
_cell_volume   296.32524573
_cell_formula_units_Z   4
loop_
 _symmetry_equiv_pos_site_id
 _symmetry_equiv_pos_as_xyz
  1  'x, y, z'
loop_
 _atom_site_type_symbol
 _atom_site_label
 _atom_site_symmetry_multiplicity
 _atom_site_fract_x
 _atom_site_fract_y
 _atom_site_fract_z
 _atom_site_occupancy
  Na  Na0  1  0.75294315  0.69244600  0.26693148  1.0
  Na  Na1  1  0.87628414  0.53978681  0.66943691  1.0
  Na  Na2  1  0.38447915  0.33731179  0.45036860  1.0
  Na  Na3  1  0.99165293  0.35065547  0.96371554  1.0
  Cl  Cl4  1  0.18237821  0.04748584  0.76156951  1.0
  Cl  Cl5  1  0.67182124  0.73601197  0.13107186  1.0
  Cl  Cl6  1  0.85463657  0.56014647  0.01856805  1.0
  Cl  Cl7  1  0.65697035  0.07500248  0.69213666  1.0
