# generated using pymatgen
data_NaCl
_symmetry_space_group_name_H-M   'P 1'
_cell_length_a   5.21376334
_cell_length_b   5.21376334
_cell_length_c   14.44057968
_cell_angle_alpha   90.00000000
_cell_angle_beta   90.00000000
_cell_angle_gamma   90.00000000
_symmetry_Int_Tables_number   1
_chemical_formula_structural   NaCl
_chemical_formula_sum   'Na4 Cl4'
_cell_volume   392.54301634
_cell_formula_units_Z   4
loop_
 _symmetry_equiv_pos_site_id
 _symmetry_equiv_pos_as_xyz
  1  'x, y, z'
loop_
 _atom_site_type_symbol
 _atom_site_label
 _atom_site_symmetry_multiplicity
 _atom_site_fract_x
 _atom_site_fract_y
 _atom_site_fract_z
 _atom_site_occupancy
  Na  Na0  1  0.73236739  0.42706585  0.58824797  1.0
  Na  Na1  1  0.98103387  0.93341756  0.50119191  1.0
  Na  Na2  1  0.85450979  0.47022337  0.80111381  1.0
  Na  Na3  1  0.10679439  0.54396544  0.04160857  1.0
  Cl  Cl4  1  0.37451688  0.07841620  0.79695351  1.0
  Cl  Cl5  1  0.69083063  0.66966448  0.48180503  1.0
  Cl  Cl6  1  0.47644519  0.55772979  0.58076930  1.0
  Cl  Cl7  1  0.95285928  0.11726992  0.26933170  1.0
