# generated using pymatgen
data_NaCl
_symmetry_space_group_name_H-M   'P 1'
_cell_length_a   4.44160740
_cell_length_b   4.44098477
_cell_length_c   15.34435108
_cell_angle_alpha   90.00000000
_cell_angle_beta   97.68571269
_cell_angle_gamma   90.00000000
_symmetry_Int_Tables_number   1
_chemical_formula_structural   NaCl
_chemical_formula_sum   'Na4 Cl4'
_cell_volume   299.95002244
_cell_formula_units_Z   4
loop_
 _symmetry_equiv_pos_site_id
 _symmetry_equiv_pos_as_xyz
  1  'x, y, z'
loop_
 _atom_site_type_symbol
 _atom_site_label
 _atom_site_symmetry_multiplicity
 _atom_site_fract_x
 _atom_site_fract_y
 _atom_site_fract_z
 _atom_site_occupancy
  Na  Na0  1  0.65107377  0.71599499  0.22598157  1.0
  Na  Na1  1  0.08753060  0.66068732  0.12315766  1.0
  Na  Na2  1  0.39371042  0.56386364  0.39052922  1.0
  Na  Na3  1  0.05422357  0.62896923  0.53342267  1.0
  Cl  Cl4  1  0.19500403  0.02266021  0.70943331  1.0
  Cl  Cl5  1  0.35713013  0.64054192  0.54165431  1.0
  Cl  Cl6  1  0.90172610  0.48159649  0.07773491  1.0
  Cl  Cl7  1  0.45424972  0.96204521  0.15972355  1.0
