# generated using pymatgen
data_NaCl
_symmetry_space_group_name_H-M   'P 1'
_cell_length_a   4.74904118
_cell_length_b   5.34682672
_cell_length_c   15.07342346
_cell_angle_alpha   90.00000000
_cell_angle_beta   90.00000000
_cell_angle_gamma   90.00000000
_symmetry_Int_Tables_number   1
_chemical_formula_structural   NaCl
_chemical_formula_sum   'Na4 Cl4'
_cell_volume   382.74889468
_cell_formula_units_Z   4
loop_
 _symmetry_equiv_pos_site_id
 _symmetry_equiv_pos_as_xyz
  1  'x, y, z'
loop_
 _atom_site_type_symbol
 _atom_site_label
 _atom_site_symmetry_multiplicity
 _atom_site_fract_x
 _atom_site_fract_y
 _atom_site_fract_z
 _atom_site_occupancy
  Na  Na0  1  0.25000000  0.68471819  0.32633650  1.0
  Na  Na1  1  0.75000000  0.54490609  0.21670915  1.0
  Na  Na2  1  0.25000000  0.64686943  0.93523514  1.0
  Na  Na3  1  0.75000000  0.60721167  0.02969003  1.0
  Cl  Cl4  1  0.25000000  0.00043291  0.76715326  1.0
  Cl  Cl5  1  0.75000000  0.69607013  0.64991233  1.0
  Cl  Cl6  1  0.25000000  0.74019865  0.56570767  1.0
  Cl  Cl7  1  0.75000000  0.98903071  0.64508881  1.0
