# generated using pymatgen
data_NaCl
_symmetry_space_group_name_H-M   'P 1'
_cell_length_a   5.47444313
_cell_length_b   5.47444313
_cell_length_c   5.47444313
_cell_angle_alpha   90.00000000
_cell_angle_beta   90.00000000
_cell_angle_gamma   90.00000000
_symmetry_Int_Tables_number   1
_chemical_formula_structural   NaCl
_chemical_formula_sum   'Na4 Cl4'
_cell_volume   164.06647439
_cell_formula_units_Z   4
loop_
 _symmetry_equiv_pos_site_id
 _symmetry_equiv_pos_as_xyz
  1  'x, y, z'
loop_
 _atom_site_type_symbol
 _atom_site_label
 _atom_site_symmetry_multiplicity
 _atom_site_fract_x
 _atom_site_fract_y
 _atom_site_fract_z
 _atom_site_occupancy
  Na  Na0  1  0.70169956  0.70169956  0.70169956  1.0
  Na  Na1  1  0.49997791  0.99997791  0.50002209  1.0
  Na  Na2  1  0.22891223  0.27108777  0.72891223  1.0
  Na  Na3  1  0.07820663  0.92179337  0.42179337  1.0
  Cl  Cl4  1  0.20653682  0.20653682  0.20653682  1.0
  Cl  Cl5  1  0.15375231  0.65375231  0.84624769  1.0
  Cl  Cl6  1  0.59657875  0.90342125  0.09657875  1.0
  Cl  Cl7  1  0.33146417  0.66853583  0.16853583  1.0
