# generated using pymatgen
data_NaCl
_symmetry_space_group_name_H-M   'P 1'
_cell_length_a   5.22749077
_cell_length_b   5.22749077
_cell_length_c   15.03492891
_cell_angle_alpha   90.00000000
_cell_angle_beta   90.00000000
_cell_angle_gamma   90.00000000
_symmetry_Int_Tables_number   1
_chemical_formula_structural   NaCl
_chemical_formula_sum   'Na4 Cl4'
_cell_volume   410.85438670
_cell_formula_units_Z   4
loop_
 _symmetry_equiv_pos_site_id
 _symmetry_equiv_pos_as_xyz
  1  'x, y, z'
loop_
 _atom_site_type_symbol
 _atom_site_label
 _atom_site_symmetry_multiplicity
 _atom_site_fract_x
 _atom_site_fract_y
 _atom_site_fract_z
 _atom_site_occupancy
  Na  Na0  1  0.62389911  0.68666315  0.37908436  1.0
  Na  Na1  1  0.99934879  0.59857463  0.61001905  1.0
  Na  Na2  1  0.46931523  0.89589759  0.07375375  1.0
  Na  Na3  1  0.86770654  0.18687698  0.68317856  1.0
  Cl  Cl4  1  0.20332657  0.04813183  0.69474333  1.0
  Cl  Cl5  1  0.77229916  0.70023260  0.06184184  1.0
  Cl  Cl6  1  0.03903683  0.34197489  0.76919331  1.0
  Cl  Cl7  1  0.50549177  0.08142733  0.51202464  1.0
