# generated using pymatgen
data_NaCl
_symmetry_space_group_name_H-M   'P 1'
_cell_length_a   4.74141315
_cell_length_b   4.74141315
_cell_length_c   4.74141315
_cell_angle_alpha   90.00000000
_cell_angle_beta   90.00000000
_cell_angle_gamma   90.00000000
_symmetry_Int_Tables_number   1
_chemical_formula_structural   NaCl
_chemical_formula_sum   'Na4 Cl4'
_cell_volume   106.59170267
_cell_formula_units_Z   4
loop_
 _symmetry_equiv_pos_site_id
 _symmetry_equiv_pos_as_xyz
  1  'x, y, z'
loop_
 _atom_site_type_symbol
 _atom_site_label
 _atom_site_symmetry_multiplicity
 _atom_site_fract_x
 _atom_site_fract_y
 _atom_site_fract_z
 _atom_site_occupancy
  Na  Na0  1  0.66582726  0.66582726  0.66582726  1.0
  Na  Na1  1  0.43247063  0.93247063  0.56752937  1.0
  Na  Na2  1  0.17043085  0.32956915  0.67043085  1.0
  Na  Na3  1  0.00067463  0.99932537  0.49932537  1.0
  Cl  Cl4  1  0.15275457  0.15275457  0.15275457  1.0
  Cl  Cl5  1  0.21327781  0.71327781  0.78672219  1.0
  Cl  Cl6  1  0.62208871  0.87791129  0.12208871  1.0
  Cl  Cl7  1  0.35469494  0.64530506  0.14530506  1.0
