# generated using pymatgen
data_NaCl
_symmetry_space_group_name_H-M   'P 1'
_cell_length_a   6.12090519
_cell_length_b   6.12090519
_cell_length_c   8.30267879
_cell_angle_alpha   90.00000000
_cell_angle_beta   90.00000000
_cell_angle_gamma   90.00000000
_symmetry_Int_Tables_number   1
_chemical_formula_structural   NaCl
_chemical_formula_sum   'Na4 Cl4'
_cell_volume   311.06384902
_cell_formula_units_Z   4
loop_
 _symmetry_equiv_pos_site_id
 _symmetry_equiv_pos_as_xyz
  1  'x, y, z'
loop_
 _atom_site_type_symbol
 _atom_site_label
 _atom_site_symmetry_multiplicity
 _atom_site_fract_x
 _atom_site_fract_y
 _atom_site_fract_z
 _atom_site_occupancy
  Na  Na0  1  0.45702688  0.52207061  0.68270078  1.0
  Na  Na1  1  0.56077748  0.79201382  0.55463403  1.0
  Na  Na2  1  0.85845238  0.35967869  0.37745942  1.0
  Na  Na3  1  0.31416684  0.23245891  0.66234284  1.0
  Cl  Cl4  1  0.05794031  0.13082762  0.66633005  1.0
  Cl  Cl5  1  0.47799056  0.41851473  0.46546064  1.0
  Cl  Cl6  1  0.30693988  0.76244944  0.07677114  1.0
  Cl  Cl7  1  0.53882287  0.13521308  0.40287076  1.0
