# generated using pymatgen
data_NaCl
_symmetry_space_group_name_H-M   'P 1'
_cell_length_a   4.41497119
_cell_length_b   8.52298893
_cell_length_c   9.91146300
_cell_angle_alpha   90.00000000
_cell_angle_beta   90.00000000
_cell_angle_gamma   90.00000000
_symmetry_Int_Tables_number   1
_chemical_formula_structural   NaCl
_chemical_formula_sum   'Na4 Cl4'
_cell_volume   372.95596910
_cell_formula_units_Z   4
loop_
 _symmetry_equiv_pos_site_id
 _symmetry_equiv_pos_as_xyz
  1  'x, y, z'
loop_
 _atom_site_type_symbol
 _atom_site_label
 _atom_site_symmetry_multiplicity
 _atom_site_fract_x
 _atom_site_fract_y
 _atom_site_fract_z
 _atom_site_occupancy
  Na  Na0  1  0.25000000  0.25000000  0.54648382  1.0
  Na  Na1  1  0.25000000  0.75000000  0.95545315  1.0
  Na  Na2  1  0.75000000  0.75000000  0.65449771  1.0
  Na  Na3  1  0.75000000  0.25000000  0.26445190  1.0
  Cl  Cl4  1  0.00000000  0.00000000  0.65139687  1.0
  Cl  Cl5  1  0.50000000  0.50000000  0.77601643  1.0
  Cl  Cl6  1  0.00000000  0.50000000  0.40238700  1.0
  Cl  Cl7  1  0.50000000  0.00000000  0.46569651  1.0
