# generated using pymatgen
data_NaCl
_symmetry_space_group_name_H-M   'P 1'
_cell_length_a   5.84911875
_cell_length_b   4.18683252
_cell_length_c   14.95009560
_cell_angle_alpha   90.00000000
_cell_angle_beta   90.00000000
_cell_angle_gamma   90.00000000
_symmetry_Int_Tables_number   1
_chemical_formula_structural   NaCl
_chemical_formula_sum   'Na4 Cl4'
_cell_volume   366.11708608
_cell_formula_units_Z   4
loop_
 _symmetry_equiv_pos_site_id
 _symmetry_equiv_pos_as_xyz
  1  'x, y, z'
loop_
 _atom_site_type_symbol
 _atom_site_label
 _atom_site_symmetry_multiplicity
 _atom_site_fract_x
 _atom_site_fract_y
 _atom_site_fract_z
 _atom_site_occupancy
  Na  Na0  1  0.73421317  0.74551895  0.28955385  1.0
  Na  Na1  1  0.90163050  0.61021127  0.64743040  1.0
  Na  Na2  1  0.38881159  0.86461508  0.41131822  1.0
  Na  Na3  1  0.95414528  0.87997515  0.96464381  1.0
  Cl  Cl4  1  0.18672811  0.05464112  0.76499828  1.0
  Cl  Cl5  1  0.75889092  0.78601266  0.09734878  1.0
  Cl  Cl6  1  0.86074653  0.07764330  0.00843703  1.0
  Cl  Cl7  1  0.60326279  0.46161966  0.71815013  1.0
