# generated using pymatgen
data_NaCl
_symmetry_space_group_name_H-M   'P 1'
_cell_length_a   5.44108708
_cell_length_b   5.44108708
_cell_length_c   6.24145853
_cell_angle_alpha   90.00000000
_cell_angle_beta   90.00000000
_cell_angle_gamma   90.00000000
_symmetry_Int_Tables_number   1
_chemical_formula_structural   NaCl
_chemical_formula_sum   'Na4 Cl4'
_cell_volume   184.78105495
_cell_formula_units_Z   4
loop_
 _symmetry_equiv_pos_site_id
 _symmetry_equiv_pos_as_xyz
  1  'x, y, z'
loop_
 _atom_site_type_symbol
 _atom_site_label
 _atom_site_symmetry_multiplicity
 _atom_site_fract_x
 _atom_site_fract_y
 _atom_site_fract_z
 _atom_site_occupancy
  Na  Na0  1  0.61307250  0.60763192  0.74970104  1.0
  Na  Na1  1  0.56549033  0.93548850  0.55876416  1.0
  Na  Na2  1  0.79318330  0.35847711  0.83878071  1.0
  Na  Na3  1  0.33623812  0.18104337  0.02188181  1.0
  Cl  Cl4  1  0.08258444  0.04967499  0.78908063  1.0
  Cl  Cl5  1  0.60944008  0.60451588  0.45860907  1.0
  Cl  Cl6  1  0.35986944  0.76339652  0.41700838  1.0
  Cl  Cl7  1  0.72957139  0.06356312  0.02821600  1.0
