# generated using pymatgen
data_NaCl
_symmetry_space_group_name_H-M   'P 1'
_cell_length_a   4.42936574
_cell_length_b   4.66560723
_cell_length_c   18.57890821
_cell_angle_alpha   90.00000000
_cell_angle_beta   90.00000000
_cell_angle_gamma   90.00000000
_symmetry_Int_Tables_number   1
_chemical_formula_structural   NaCl
_chemical_formula_sum   'Na4 Cl4'
_cell_volume   383.94578707
_cell_formula_units_Z   4
loop_
 _symmetry_equiv_pos_site_id
 _symmetry_equiv_pos_as_xyz
  1  'x, y, z'
loop_
 _atom_site_type_symbol
 _atom_site_label
 _atom_site_symmetry_multiplicity
 _atom_site_fract_x
 _atom_site_fract_y
 _atom_site_fract_z
 _atom_site_occupancy
  Na  Na0  1  0.74749943  0.61676751  0.34958405  1.0
  Na  Na1  1  0.21050874  0.45623316  0.35047254  1.0
  Na  Na2  1  0.72089423  0.57853996  0.07060127  1.0
  Na  Na3  1  0.27217941  0.51961369  0.51309639  1.0
  Cl  Cl4  1  0.18501714  0.90838988  0.85128819  1.0
  Cl  Cl5  1  0.18025302  0.75319295  0.09107399  1.0
  Cl  Cl6  1  0.65820479  0.03851139  0.47782089  1.0
  Cl  Cl7  1  0.42712937  0.96025821  0.87126416  1.0
