# generated using pymatgen
data_NaCl
_symmetry_space_group_name_H-M   'P 1'
_cell_length_a   5.19327401
_cell_length_b   5.19327401
_cell_length_c   13.22855425
_cell_angle_alpha   90.00000000
_cell_angle_beta   90.00000000
_cell_angle_gamma   90.00000000
_symmetry_Int_Tables_number   1
_chemical_formula_structural   NaCl
_chemical_formula_sum   'Na4 Cl4'
_cell_volume   356.77536408
_cell_formula_units_Z   4
loop_
 _symmetry_equiv_pos_site_id
 _symmetry_equiv_pos_as_xyz
  1  'x, y, z'
loop_
 _atom_site_type_symbol
 _atom_site_label
 _atom_site_symmetry_multiplicity
 _atom_site_fract_x
 _atom_site_fract_y
 _atom_site_fract_z
 _atom_site_occupancy
  Na  Na0  1  0.73607422  0.73607422  0.12839427  1.0
  Na  Na1  1  0.85415460  0.85415460  0.04029901  1.0
  Na  Na2  1  0.33804214  0.66195786  0.07434822  1.0
  Na  Na3  1  0.91190787  0.08809213  0.66003062  1.0
  Cl  Cl4  1  0.00000000  0.50000000  0.60814980  1.0
  Cl  Cl5  1  0.50000000  0.00000000  0.48178038  1.0
  Cl  Cl6  1  0.00000000  0.50000000  0.83102772  1.0
  Cl  Cl7  1  0.50000000  0.00000000  0.55268131  1.0
