# generated using pymatgen
data_NaCl
_symmetry_space_group_name_H-M   'P 1'
_cell_length_a   4.04227511
_cell_length_b   6.23168832
_cell_length_c   13.87771331
_cell_angle_alpha   108.03175851
_cell_angle_beta   130.13101367
_cell_angle_gamma   58.19940919
_symmetry_Int_Tables_number   1
_chemical_formula_structural   NaCl
_chemical_formula_sum   'Na4 Cl4'
_cell_volume   226.91489080
_cell_formula_units_Z   4
loop_
 _symmetry_equiv_pos_site_id
 _symmetry_equiv_pos_as_xyz
  1  'x, y, z'
loop_
 _atom_site_type_symbol
 _atom_site_label
 _atom_site_symmetry_multiplicity
 _atom_site_fract_x
 _atom_site_fract_y
 _atom_site_fract_z
 _atom_site_occupancy
  Na  Na0  1  0.00000000  0.50000000  0.50000000  1.0
  Na  Na1  1  0.50000000  0.00000000  0.00000000  1.0
  Na  Na2  1  0.77802618  0.00069100  0.52962573  1.0
  Na  Na3  1  0.55490442  0.07933232  0.61938425  1.0
  Cl  Cl4  1  0.00000000  0.00000000  0.00000000  1.0
  Cl  Cl5  1  0.00000000  0.50000000  0.00000000  1.0
  Cl  Cl6  1  0.85397528  0.57355438  0.21575811  1.0
  Cl  Cl7  1  0.02169062  0.57018323  0.75665944  1.0
