# generated using pymatgen
data_NaCl
_symmetry_space_group_name_H-M   'P 1'
_cell_length_a   2.40989062
_cell_length_b   15.21981849
_cell_length_c   9.93961346
_cell_angle_alpha   90.00000000
_cell_angle_beta   90.00000000
_cell_angle_gamma   90.00000000
_symmetry_Int_Tables_number   1
_chemical_formula_structural   NaCl
_chemical_formula_sum   'Na4 Cl4'
_cell_volume   364.56611475
_cell_formula_units_Z   4
loop_
 _symmetry_equiv_pos_site_id
 _symmetry_equiv_pos_as_xyz
  1  'x, y, z'
loop_
 _atom_site_type_symbol
 _atom_site_label
 _atom_site_symmetry_multiplicity
 _atom_site_fract_x
 _atom_site_fract_y
 _atom_site_fract_z
 _atom_site_occupancy
  Na  Na0  1  0.55828507  0.51973220  0.64881784  1.0
  Na  Na1  1  0.43799971  0.80469802  0.75863347  1.0
  Na  Na2  1  0.78992570  0.82515401  0.01874367  1.0
  Na  Na3  1  0.10833460  0.35428965  0.31292591  1.0
  Cl  Cl4  1  0.00000000  0.07729224  0.75102349  1.0
  Cl  Cl5  1  0.50000000  0.66320500  0.47920767  1.0
  Cl  Cl6  1  0.00000000  0.44636522  0.25972778  1.0
  Cl  Cl7  1  0.50000000  0.38542291  0.05769999  1.0
