# generated using pymatgen
data_NaCl
_symmetry_space_group_name_H-M   'P 1'
_cell_length_a   2.85880054
_cell_length_b   7.36176398
_cell_length_c   15.64428906
_cell_angle_alpha   90.00000000
_cell_angle_beta   90.00000000
_cell_angle_gamma   90.00000000
_symmetry_Int_Tables_number   1
_chemical_formula_structural   NaCl
_chemical_formula_sum   'Na4 Cl4'
_cell_volume   329.24681088
_cell_formula_units_Z   4
loop_
 _symmetry_equiv_pos_site_id
 _symmetry_equiv_pos_as_xyz
  1  'x, y, z'
loop_
 _atom_site_type_symbol
 _atom_site_label
 _atom_site_symmetry_multiplicity
 _atom_site_fract_x
 _atom_site_fract_y
 _atom_site_fract_z
 _atom_site_occupancy
  Na  Na0  1  0.00000000  0.70515284  0.26798020  1.0
  Na  Na1  1  0.00000000  0.48032412  0.34265344  1.0
  Na  Na2  1  0.50000000  0.00000000  0.50036150  1.0
  Na  Na3  1  0.50000000  0.50000000  0.57039689  1.0
  Cl  Cl4  1  0.00000000  0.00000000  0.84949648  1.0
  Cl  Cl5  1  0.00000000  0.36260087  0.69044879  1.0
  Cl  Cl6  1  0.00000000  0.03226249  0.17502523  1.0
  Cl  Cl7  1  0.50000000  0.00000000  0.26684081  1.0
