# generated using pymatgen
data_NaCl
_symmetry_space_group_name_H-M   'P 1'
_cell_length_a   5.69820265
_cell_length_b   5.69820265
_cell_length_c   6.04527474
_cell_angle_alpha   90.00000000
_cell_angle_beta   90.00000000
_cell_angle_gamma   90.00000000
_symmetry_Int_Tables_number   1
_chemical_formula_structural   NaCl
_chemical_formula_sum   'Na4 Cl4'
_cell_volume   196.28712942
_cell_formula_units_Z   4
loop_
 _symmetry_equiv_pos_site_id
 _symmetry_equiv_pos_as_xyz
  1  'x, y, z'
loop_
 _atom_site_type_symbol
 _atom_site_label
 _atom_site_symmetry_multiplicity
 _atom_site_fract_x
 _atom_site_fract_y
 _atom_site_fract_z
 _atom_site_occupancy
  Na  Na0  1  0.57920268  0.07920268  0.73863010  1.0
  Na  Na1  1  0.67097527  0.17097527  0.12746234  1.0
  Na  Na2  1  0.05096551  0.44903449  0.66117605  1.0
  Na  Na3  1  0.32744499  0.17255501  0.40038024  1.0
  Cl  Cl4  1  0.00000000  0.00000000  0.78527391  1.0
  Cl  Cl5  1  0.50000000  0.50000000  0.72350634  1.0
  Cl  Cl6  1  0.00000000  0.00000000  0.22788125  1.0
  Cl  Cl7  1  0.50000000  0.50000000  0.26645434  1.0
