# generated using pymatgen
data_NaCl
_symmetry_space_group_name_H-M   'P 1'
_cell_length_a   5.90512774
_cell_length_b   5.90512774
_cell_length_c   8.18670164
_cell_angle_alpha   90.00000000
_cell_angle_beta   90.00000000
_cell_angle_gamma   120.00000000
_symmetry_Int_Tables_number   1
_chemical_formula_structural   NaCl
_chemical_formula_sum   'Na4 Cl4'
_cell_volume   247.22830321
_cell_formula_units_Z   4
loop_
 _symmetry_equiv_pos_site_id
 _symmetry_equiv_pos_as_xyz
  1  'x, y, z'
loop_
 _atom_site_type_symbol
 _atom_site_label
 _atom_site_symmetry_multiplicity
 _atom_site_fract_x
 _atom_site_fract_y
 _atom_site_fract_z
 _atom_site_occupancy
  Na  Na0  1  0.00000000  0.00000000  0.79688144  1.0
  Na  Na1  1  0.31149979  0.18432967  0.18531495  1.0
  Na  Na2  1  0.97783433  0.84290199  0.61927184  1.0
  Na  Na3  1  0.65113693  0.30624648  0.32499099  1.0
  Cl  Cl4  1  0.66666667  0.33333333  0.78277533  1.0
  Cl  Cl5  1  0.38862453  0.68715077  0.73609410  1.0
  Cl  Cl6  1  0.49946659  0.98557795  0.18395328  1.0
  Cl  Cl7  1  0.40843072  0.84127253  0.40583840  1.0
