# generated using pymatgen
data_NaCl
_symmetry_space_group_name_H-M   'P 1'
_cell_length_a   6.61705623
_cell_length_b   2.64639062
_cell_length_c   14.94709550
_cell_angle_alpha   90.00000000
_cell_angle_beta   118.72112891
_cell_angle_gamma   90.00000000
_symmetry_Int_Tables_number   1
_chemical_formula_structural   NaCl
_chemical_formula_sum   'Na4 Cl4'
_cell_volume   229.54076832
_cell_formula_units_Z   4
loop_
 _symmetry_equiv_pos_site_id
 _symmetry_equiv_pos_as_xyz
  1  'x, y, z'
loop_
 _atom_site_type_symbol
 _atom_site_label
 _atom_site_symmetry_multiplicity
 _atom_site_fract_x
 _atom_site_fract_y
 _atom_site_fract_z
 _atom_site_occupancy
  Na  Na0  1  0.74572555  0.73263186  0.28433579  1.0
  Na  Na1  1  0.81599592  0.96726003  0.78413303  1.0
  Na  Na2  1  0.87762505  0.13904338  0.34217791  1.0
  Na  Na3  1  0.47175493  0.35864807  0.44079566  1.0
  Cl  Cl4  1  0.27500111  0.08445417  0.77350166  1.0
  Cl  Cl5  1  0.67484087  0.76466604  0.34448365  1.0
  Cl  Cl6  1  0.29297787  0.95658548  0.13259999  1.0
  Cl  Cl7  1  0.02764293  0.90855732  0.95904051  1.0
