# generated using pymatgen
data_NaCl
_symmetry_space_group_name_H-M   'P 1'
_cell_length_a   4.06597050
_cell_length_b   26.74973652
_cell_length_c   4.01921730
_cell_angle_alpha   90.00000000
_cell_angle_beta   132.32618076
_cell_angle_gamma   90.00000000
_symmetry_Int_Tables_number   1
_chemical_formula_structural   NaCl
_chemical_formula_sum   'Na4 Cl4'
_cell_volume   323.19134705
_cell_formula_units_Z   4
loop_
 _symmetry_equiv_pos_site_id
 _symmetry_equiv_pos_as_xyz
  1  'x, y, z'
loop_
 _atom_site_type_symbol
 _atom_site_label
 _atom_site_symmetry_multiplicity
 _atom_site_fract_x
 _atom_site_fract_y
 _atom_site_fract_z
 _atom_site_occupancy
  Na  Na0  1  0.63842233  0.62896691  0.83835420  1.0
  Na  Na1  1  0.29121360  0.81224399  0.65724834  1.0
  Na  Na2  1  0.48107425  0.54696621  0.72158444  1.0
  Na  Na3  1  0.30136134  0.23148192  0.76310494  1.0
  Cl  Cl4  1  0.12434191  0.81801302  0.83402529  1.0
  Cl  Cl5  1  0.30893636  0.32754395  0.25266492  1.0
  Cl  Cl6  1  0.42044766  0.00565902  0.12750063  1.0
  Cl  Cl7  1  0.47835652  0.94004848  0.68136513  1.0
