# generated using pymatgen
data_NaCl
_symmetry_space_group_name_H-M   'P 1'
_cell_length_a   3.66481253
_cell_length_b   8.81020991
_cell_length_c   19.13464059
_cell_angle_alpha   90.00000000
_cell_angle_beta   148.80559874
_cell_angle_gamma   90.00000000
_symmetry_Int_Tables_number   1
_chemical_formula_structural   NaCl
_chemical_formula_sum   'Na4 Cl4'
_cell_volume   319.99312820
_cell_formula_units_Z   4
loop_
 _symmetry_equiv_pos_site_id
 _symmetry_equiv_pos_as_xyz
  1  'x, y, z'
loop_
 _atom_site_type_symbol
 _atom_site_label
 _atom_site_symmetry_multiplicity
 _atom_site_fract_x
 _atom_site_fract_y
 _atom_site_fract_z
 _atom_site_occupancy
  Na  Na0  1  0.99942206  0.31715409  0.40981051  1.0
  Na  Na1  1  0.77748505  0.67443515  0.95408964  1.0
  Na  Na2  1  0.29961832  0.16363336  0.50133642  1.0
  Na  Na3  1  0.40321974  0.71901319  0.54918126  1.0
  Cl  Cl4  1  0.87033047  0.26994542  0.60640573  1.0
  Cl  Cl5  1  0.91059722  0.82728135  0.13004700  1.0
  Cl  Cl6  1  0.65815206  0.88840456  0.62392653  1.0
  Cl  Cl7  1  0.00003295  0.49801567  0.54548005  1.0
