# generated using pymatgen
data_NaCl
_symmetry_space_group_name_H-M   'P 1'
_cell_length_a   2.70727152
_cell_length_b   2.70727152
_cell_length_c   18.20151804
_cell_angle_alpha   90.00000000
_cell_angle_beta   90.00000000
_cell_angle_gamma   90.00000000
_symmetry_Int_Tables_number   1
_chemical_formula_structural   NaCl
_chemical_formula_sum   'Na4 Cl4'
_cell_volume   133.40473351
_cell_formula_units_Z   4
loop_
 _symmetry_equiv_pos_site_id
 _symmetry_equiv_pos_as_xyz
  1  'x, y, z'
loop_
 _atom_site_type_symbol
 _atom_site_label
 _atom_site_symmetry_multiplicity
 _atom_site_fract_x
 _atom_site_fract_y
 _atom_site_fract_z
 _atom_site_occupancy
  Na  Na0  1  0.75566258  0.75566258  0.62500000  1.0
  Na  Na1  1  0.93465024  0.93465024  0.12500000  1.0
  Na  Na2  1  0.28607793  0.71392207  0.37500000  1.0
  Na  Na3  1  0.72850240  0.27149760  0.87500000  1.0
  Cl  Cl4  1  0.50000000  0.32062971  0.00000000  1.0
  Cl  Cl5  1  0.50000000  0.48414461  0.50000000  1.0
  Cl  Cl6  1  0.57188187  0.50000000  0.75000000  1.0
  Cl  Cl7  1  0.92175309  0.50000000  0.25000000  1.0
