# generated using pymatgen
data_NaCl
_symmetry_space_group_name_H-M   'P 1'
_cell_length_a   3.58571118
_cell_length_b   5.01308579
_cell_length_c   15.24138608
_cell_angle_alpha   90.00000000
_cell_angle_beta   119.77161786
_cell_angle_gamma   90.00000000
_symmetry_Int_Tables_number   1
_chemical_formula_structural   NaCl
_chemical_formula_sum   'Na4 Cl4'
_cell_volume   237.81015718
_cell_formula_units_Z   4
loop_
 _symmetry_equiv_pos_site_id
 _symmetry_equiv_pos_as_xyz
  1  'x, y, z'
loop_
 _atom_site_type_symbol
 _atom_site_label
 _atom_site_symmetry_multiplicity
 _atom_site_fract_x
 _atom_site_fract_y
 _atom_site_fract_z
 _atom_site_occupancy
  Na  Na0  1  0.81374749  0.56644117  0.10993229  1.0
  Na  Na1  1  0.63443903  0.02795198  0.81479770  1.0
  Na  Na2  1  0.84781408  0.17457197  0.46428290  1.0
  Na  Na3  1  0.31576534  0.37265519  0.48026469  1.0
  Cl  Cl4  1  0.21588141  0.11436492  0.70212796  1.0
  Cl  Cl5  1  0.62491064  0.85980686  0.40675514  1.0
  Cl  Cl6  1  0.37221676  0.95398055  0.01953818  1.0
  Cl  Cl7  1  0.04152281  0.90272463  0.74772018  1.0
