# generated using pymatgen
data_NaCl
_symmetry_space_group_name_H-M   'P 1'
_cell_length_a   4.49326448
_cell_length_b   7.76144710
_cell_length_c   8.64817720
_cell_angle_alpha   90.00000000
_cell_angle_beta   90.00000000
_cell_angle_gamma   90.00000000
_symmetry_Int_Tables_number   1
_chemical_formula_structural   NaCl
_chemical_formula_sum   'Na4 Cl4'
_cell_volume   301.59856026
_cell_formula_units_Z   4
loop_
 _symmetry_equiv_pos_site_id
 _symmetry_equiv_pos_as_xyz
  1  'x, y, z'
loop_
 _atom_site_type_symbol
 _atom_site_label
 _atom_site_symmetry_multiplicity
 _atom_site_fract_x
 _atom_site_fract_y
 _atom_site_fract_z
 _atom_site_occupancy
  Na  Na0  1  0.23942361  0.66690527  0.66552196  1.0
  Na  Na1  1  0.73293293  0.35314475  0.84409715  1.0
  Na  Na2  1  0.88237792  0.04837821  0.91654933  1.0
  Na  Na3  1  0.53426219  0.49915344  0.63523714  1.0
  Cl  Cl4  1  0.70436423  0.93233292  0.67124393  1.0
  Cl  Cl5  1  0.03432957  0.91774541  0.26606153  1.0
  Cl  Cl6  1  0.45519854  0.70457121  0.79374673  1.0
  Cl  Cl7  1  0.59119657  0.57651043  0.10638444  1.0
