# generated using pymatgen
data_NaCl
_symmetry_space_group_name_H-M   'P 1'
_cell_length_a   5.55518997
_cell_length_b   14.75651655
_cell_length_c   5.32487579
_cell_angle_alpha   90.00000000
_cell_angle_beta   46.78887328
_cell_angle_gamma   90.00000000
_symmetry_Int_Tables_number   1
_chemical_formula_structural   NaCl
_chemical_formula_sum   'Na4 Cl4'
_cell_volume   318.14263145
_cell_formula_units_Z   4
loop_
 _symmetry_equiv_pos_site_id
 _symmetry_equiv_pos_as_xyz
  1  'x, y, z'
loop_
 _atom_site_type_symbol
 _atom_site_label
 _atom_site_symmetry_multiplicity
 _atom_site_fract_x
 _atom_site_fract_y
 _atom_site_fract_z
 _atom_site_occupancy
  Na  Na0  1  0.00566332  0.71143862  0.45293448  1.0
  Na  Na1  1  0.90498472  0.39915291  0.02833775  1.0
  Na  Na2  1  0.30633344  0.63243073  0.54922121  1.0
  Na  Na3  1  0.53552561  0.56271155  0.92006736  1.0
  Cl  Cl4  1  0.65985743  0.46314831  0.62396094  1.0
  Cl  Cl5  1  0.38717966  0.99900673  0.35363790  1.0
  Cl  Cl6  1  0.03855907  0.62448310  0.63149710  1.0
  Cl  Cl7  1  0.72876751  0.57584118  0.92259301  1.0
