# generated using pymatgen
data_NaCl
_symmetry_space_group_name_H-M   'P 1'
_cell_length_a   5.45414571
_cell_length_b   5.45414571
_cell_length_c   12.65019801
_cell_angle_alpha   90.00000000
_cell_angle_beta   90.00000000
_cell_angle_gamma   90.00000000
_symmetry_Int_Tables_number   1
_chemical_formula_structural   NaCl
_chemical_formula_sum   'Na4 Cl4'
_cell_volume   376.31436398
_cell_formula_units_Z   4
loop_
 _symmetry_equiv_pos_site_id
 _symmetry_equiv_pos_as_xyz
  1  'x, y, z'
loop_
 _atom_site_type_symbol
 _atom_site_label
 _atom_site_symmetry_multiplicity
 _atom_site_fract_x
 _atom_site_fract_y
 _atom_site_fract_z
 _atom_site_occupancy
  Na  Na0  1  0.27444785  0.63137520  0.67376700  1.0
  Na  Na1  1  0.33801254  0.37453192  0.91008196  1.0
  Na  Na2  1  0.92368041  0.19348323  0.86850685  1.0
  Na  Na3  1  0.06564217  0.94660579  0.26809971  1.0
  Cl  Cl4  1  0.68241630  0.91795052  0.59233368  1.0
  Cl  Cl5  1  0.48918490  0.93920360  0.29527505  1.0
  Cl  Cl6  1  0.84352708  0.47887421  0.85588198  1.0
  Cl  Cl7  1  0.87541417  0.75341654  0.60337976  1.0
