# generated using pymatgen
data_NaCl
_symmetry_space_group_name_H-M   'P 1'
_cell_length_a   4.65125675
_cell_length_b   4.65125675
_cell_length_c   8.38773559
_cell_angle_alpha   90.00000000
_cell_angle_beta   90.00000000
_cell_angle_gamma   90.00000000
_symmetry_Int_Tables_number   1
_chemical_formula_structural   NaCl
_chemical_formula_sum   'Na4 Cl4'
_cell_volume   181.46186001
_cell_formula_units_Z   4
loop_
 _symmetry_equiv_pos_site_id
 _symmetry_equiv_pos_as_xyz
  1  'x, y, z'
loop_
 _atom_site_type_symbol
 _atom_site_label
 _atom_site_symmetry_multiplicity
 _atom_site_fract_x
 _atom_site_fract_y
 _atom_site_fract_z
 _atom_site_occupancy
  Na  Na0  1  0.28359650  0.60938844  0.63746282  1.0
  Na  Na1  1  0.30067311  0.56182352  0.01779295  1.0
  Na  Na2  1  0.86585308  0.77385034  0.08039585  1.0
  Na  Na3  1  0.81490221  0.14471980  0.16403599  1.0
  Cl  Cl4  1  0.67524788  0.89641950  0.77986972  1.0
  Cl  Cl5  1  0.71450114  0.79675670  0.18109244  1.0
  Cl  Cl6  1  0.93834551  0.65331478  0.84105795  1.0
  Cl  Cl7  1  0.99933104  0.95378502  0.63997402  1.0
