# generated using pymatgen
data_NaCl
_symmetry_space_group_name_H-M   'P 1'
_cell_length_a   6.47394711
_cell_length_b   6.47394711
_cell_length_c   8.69981186
_cell_angle_alpha   90.00000000
_cell_angle_beta   90.00000000
_cell_angle_gamma   90.00000000
_symmetry_Int_Tables_number   1
_chemical_formula_structural   NaCl
_chemical_formula_sum   'Na4 Cl4'
_cell_volume   364.62643797
_cell_formula_units_Z   4
loop_
 _symmetry_equiv_pos_site_id
 _symmetry_equiv_pos_as_xyz
  1  'x, y, z'
loop_
 _atom_site_type_symbol
 _atom_site_label
 _atom_site_symmetry_multiplicity
 _atom_site_fract_x
 _atom_site_fract_y
 _atom_site_fract_z
 _atom_site_occupancy
  Na  Na0  1  0.36765845  0.73312784  0.64099346  1.0
  Na  Na1  1  0.15507687  0.62811769  0.02492575  1.0
  Na  Na2  1  0.82057952  0.80692184  0.29134308  1.0
  Na  Na3  1  0.05084588  0.90655580  0.66195131  1.0
  Cl  Cl4  1  0.72739689  0.90298906  0.66701596  1.0
  Cl  Cl5  1  0.63879455  0.82437159  0.22990912  1.0
  Cl  Cl6  1  0.84883778  0.59154800  0.48488700  1.0
  Cl  Cl7  1  0.93302372  0.84428678  0.13857191  1.0
