# generated using pymatgen
data_NaCl
_symmetry_space_group_name_H-M   'P 1'
_cell_length_a   5.01556001
_cell_length_b   5.01556001
_cell_length_c   5.01556001
_cell_angle_alpha   90.00000000
_cell_angle_beta   90.00000000
_cell_angle_gamma   90.00000000
_symmetry_Int_Tables_number   1
_chemical_formula_structural   NaCl
_chemical_formula_sum   'Na4 Cl4'
_cell_volume   126.17063623
_cell_formula_units_Z   4
loop_
 _symmetry_equiv_pos_site_id
 _symmetry_equiv_pos_as_xyz
  1  'x, y, z'
loop_
 _atom_site_type_symbol
 _atom_site_label
 _atom_site_symmetry_multiplicity
 _atom_site_fract_x
 _atom_site_fract_y
 _atom_site_fract_z
 _atom_site_occupancy
  Na  Na0  1  0.17617996  0.17617996  0.17617996  1.0
  Na  Na1  1  0.74235922  0.24235922  0.25764078  1.0
  Na  Na2  1  0.94921776  0.55078224  0.44921776  1.0
  Na  Na3  1  0.56499646  0.43500354  0.93500354  1.0
  Cl  Cl4  1  0.53283988  0.53283988  0.53283988  1.0
  Cl  Cl5  1  0.31847668  0.81847668  0.68152332  1.0
  Cl  Cl6  1  0.32727605  0.17272395  0.82727605  1.0
  Cl  Cl7  1  0.74115171  0.25884829  0.75884829  1.0
