# generated using pymatgen
data_NaCl
_symmetry_space_group_name_H-M   'P 1'
_cell_length_a   5.71630303
_cell_length_b   5.71630303
_cell_length_c   11.04204290
_cell_angle_alpha   90.00000000
_cell_angle_beta   90.00000000
_cell_angle_gamma   120.00000000
_symmetry_Int_Tables_number   1
_chemical_formula_structural   NaCl
_chemical_formula_sum   'Na4 Cl4'
_cell_volume   312.47159805
_cell_formula_units_Z   4
loop_
 _symmetry_equiv_pos_site_id
 _symmetry_equiv_pos_as_xyz
  1  'x, y, z'
loop_
 _atom_site_type_symbol
 _atom_site_label
 _atom_site_symmetry_multiplicity
 _atom_site_fract_x
 _atom_site_fract_y
 _atom_site_fract_z
 _atom_site_occupancy
  Na  Na0  1  0.00000000  0.00000000  0.44809033  1.0
  Na  Na1  1  0.33333333  0.66666667  0.40295005  1.0
  Na  Na2  1  0.33333333  0.66666667  0.55623478  1.0
  Na  Na3  1  0.66666667  0.33333333  0.40417887  1.0
  Cl  Cl4  1  0.66666667  0.33333333  0.64776998  1.0
  Cl  Cl5  1  0.28490486  0.11646301  0.70006387  1.0
  Cl  Cl6  1  0.81067193  0.41719797  0.97510770  1.0
  Cl  Cl7  1  0.72510475  0.79437413  0.85786441  1.0
