# generated using pymatgen
data_NaCl
_symmetry_space_group_name_H-M   'P 1'
_cell_length_a   8.04832228
_cell_length_b   16.95493380
_cell_length_c   10.91229056
_cell_angle_alpha   66.90436919
_cell_angle_beta   37.52818505
_cell_angle_gamma   33.93779780
_symmetry_Int_Tables_number   1
_chemical_formula_structural   NaCl
_chemical_formula_sum   'Na4 Cl4'
_cell_volume   316.12286218
_cell_formula_units_Z   4
loop_
 _symmetry_equiv_pos_site_id
 _symmetry_equiv_pos_as_xyz
  1  'x, y, z'
loop_
 _atom_site_type_symbol
 _atom_site_label
 _atom_site_symmetry_multiplicity
 _atom_site_fract_x
 _atom_site_fract_y
 _atom_site_fract_z
 _atom_site_occupancy
  Na  Na0  1  0.74818705  0.53082816  0.50172960  1.0
  Na  Na1  1  0.16979232  0.46963040  0.15932649  1.0
  Na  Na2  1  0.32458480  0.15994186  0.47275973  1.0
  Na  Na3  1  0.88506667  0.72327758  0.64362890  1.0
  Cl  Cl4  1  0.00000000  0.00000000  0.50000000  1.0
  Cl  Cl5  1  0.00000000  0.50000000  0.50000000  1.0
  Cl  Cl6  1  0.50000000  0.00000000  0.50000000  1.0
  Cl  Cl7  1  0.50000000  0.50000000  0.00000000  1.0
