# generated using pymatgen
data_NaCl
_symmetry_space_group_name_H-M   'P 1'
_cell_length_a   6.00551703
_cell_length_b   6.00551703
_cell_length_c   10.48035357
_cell_angle_alpha   90.00000000
_cell_angle_beta   90.00000000
_cell_angle_gamma   90.00000000
_symmetry_Int_Tables_number   1
_chemical_formula_structural   NaCl
_chemical_formula_sum   'Na4 Cl4'
_cell_volume   377.98689262
_cell_formula_units_Z   4
loop_
 _symmetry_equiv_pos_site_id
 _symmetry_equiv_pos_as_xyz
  1  'x, y, z'
loop_
 _atom_site_type_symbol
 _atom_site_label
 _atom_site_symmetry_multiplicity
 _atom_site_fract_x
 _atom_site_fract_y
 _atom_site_fract_z
 _atom_site_occupancy
  Na  Na0  1  0.33990044  0.33990044  0.00000000  1.0
  Na  Na1  1  0.13685427  0.13685427  0.50000000  1.0
  Na  Na2  1  0.37212886  0.62787114  0.25000000  1.0
  Na  Na3  1  0.49781094  0.50218906  0.75000000  1.0
  Cl  Cl4  1  0.81022866  0.81022866  0.00000000  1.0
  Cl  Cl5  1  0.79106620  0.79106620  0.50000000  1.0
  Cl  Cl6  1  0.91894836  0.08105164  0.25000000  1.0
  Cl  Cl7  1  0.83095911  0.16904089  0.75000000  1.0
