# generated using pymatgen
data_NaCl
_symmetry_space_group_name_H-M   'P 1'
_cell_length_a   4.77202640
_cell_length_b   13.07047290
_cell_length_c   12.66225043
_cell_angle_alpha   90.00000000
_cell_angle_beta   26.30303972
_cell_angle_gamma   90.00000000
_symmetry_Int_Tables_number   1
_chemical_formula_structural   NaCl
_chemical_formula_sum   'Na4 Cl4'
_cell_volume   349.96544570
_cell_formula_units_Z   4
loop_
 _symmetry_equiv_pos_site_id
 _symmetry_equiv_pos_as_xyz
  1  'x, y, z'
loop_
 _atom_site_type_symbol
 _atom_site_label
 _atom_site_symmetry_multiplicity
 _atom_site_fract_x
 _atom_site_fract_y
 _atom_site_fract_z
 _atom_site_occupancy
  Na  Na0  1  0.87571268  0.44493381  0.51692158  1.0
  Na  Na1  1  0.93946060  0.41291152  0.03072810  1.0
  Na  Na2  1  0.75782645  0.57269676  0.37083081  1.0
  Na  Na3  1  0.53411359  0.38070706  0.31273742  1.0
  Cl  Cl4  1  0.55496056  0.80427387  0.28016789  1.0
  Cl  Cl5  1  0.01453492  0.85847754  0.17679830  1.0
  Cl  Cl6  1  0.18549895  0.59867013  0.84008121  1.0
  Cl  Cl7  1  0.80869940  0.90141077  0.39442812  1.0
