# generated using pymatgen
data_NaCl
_symmetry_space_group_name_H-M   'P 1'
_cell_length_a   3.85270376
_cell_length_b   3.85270376
_cell_length_c   16.03363243
_cell_angle_alpha   90.00000000
_cell_angle_beta   90.00000000
_cell_angle_gamma   90.00000000
_symmetry_Int_Tables_number   1
_chemical_formula_structural   NaCl
_chemical_formula_sum   'Na4 Cl4'
_cell_volume   237.99243733
_cell_formula_units_Z   4
loop_
 _symmetry_equiv_pos_site_id
 _symmetry_equiv_pos_as_xyz
  1  'x, y, z'
loop_
 _atom_site_type_symbol
 _atom_site_label
 _atom_site_symmetry_multiplicity
 _atom_site_fract_x
 _atom_site_fract_y
 _atom_site_fract_z
 _atom_site_occupancy
  Na  Na0  1  0.74393176  0.72118626  0.77421883  1.0
  Na  Na1  1  0.00005368  0.37807686  0.02390408  1.0
  Na  Na2  1  0.93240010  0.31262538  0.19709542  1.0
  Na  Na3  1  0.19094078  0.75311201  0.61854889  1.0
  Cl  Cl4  1  0.20911514  0.76085135  0.37413132  1.0
  Cl  Cl5  1  0.97824988  0.77887877  0.07259734  1.0
  Cl  Cl6  1  0.99783499  0.78445259  0.28983439  1.0
  Cl  Cl7  1  0.49325244  0.56608491  0.14216459  1.0
