# generated using pymatgen
data_NaCl
_symmetry_space_group_name_H-M   'P 1'
_cell_length_a   4.44283836
_cell_length_b   4.44283836
_cell_length_c   9.90558077
_cell_angle_alpha   90.00000000
_cell_angle_beta   90.00000000
_cell_angle_gamma   90.00000000
_symmetry_Int_Tables_number   1
_chemical_formula_structural   NaCl
_chemical_formula_sum   'Na4 Cl4'
_cell_volume   195.52440344
_cell_formula_units_Z   4
loop_
 _symmetry_equiv_pos_site_id
 _symmetry_equiv_pos_as_xyz
  1  'x, y, z'
loop_
 _atom_site_type_symbol
 _atom_site_label
 _atom_site_symmetry_multiplicity
 _atom_site_fract_x
 _atom_site_fract_y
 _atom_site_fract_z
 _atom_site_occupancy
  Na  Na0  1  0.34177181  0.26717102  0.55217569  1.0
  Na  Na1  1  0.24386544  0.30889043  0.91847087  1.0
  Na  Na2  1  0.88602643  0.17128099  0.82251824  1.0
  Na  Na3  1  0.00071555  0.60165082  0.18122166  1.0
  Cl  Cl4  1  0.73702541  0.91739351  0.66666667  1.0
  Cl  Cl5  1  0.13272607  0.92698824  0.13323030  1.0
  Cl  Cl6  1  0.93595497  0.48277927  0.99352092  1.0
  Cl  Cl7  1  0.69209407  0.69072108  0.89751429  1.0
