# generated using pymatgen
data_NaCl
_symmetry_space_group_name_H-M   'P 1'
_cell_length_a   5.17541781
_cell_length_b   5.17541781
_cell_length_c   15.06640524
_cell_angle_alpha   90.00000000
_cell_angle_beta   90.00000000
_cell_angle_gamma   90.00000000
_symmetry_Int_Tables_number   1
_chemical_formula_structural   NaCl
_chemical_formula_sum   'Na4 Cl4'
_cell_volume   403.55290362
_cell_formula_units_Z   4
loop_
 _symmetry_equiv_pos_site_id
 _symmetry_equiv_pos_as_xyz
  1  'x, y, z'
loop_
 _atom_site_type_symbol
 _atom_site_label
 _atom_site_symmetry_multiplicity
 _atom_site_fract_x
 _atom_site_fract_y
 _atom_site_fract_z
 _atom_site_occupancy
  Na  Na0  1  0.48126959  0.98126959  0.54532905  1.0
  Na  Na1  1  0.32449422  0.82449422  0.75303198  1.0
  Na  Na2  1  0.72146180  0.77853820  0.59686098  1.0
  Na  Na3  1  0.26106593  0.23893407  0.77725327  1.0
  Cl  Cl4  1  0.49046277  0.99046277  0.46143238  1.0
  Cl  Cl5  1  0.94764506  0.44764506  0.83199445  1.0
  Cl  Cl6  1  0.21808247  0.28191753  0.23777920  1.0
  Cl  Cl7  1  0.93897953  0.56102047  0.31482771  1.0
