# generated using pymatgen
data_NaCl
_symmetry_space_group_name_H-M   'P 1'
_cell_length_a   6.25800139
_cell_length_b   6.25800139
_cell_length_c   6.25800139
_cell_angle_alpha   90.00000000
_cell_angle_beta   90.00000000
_cell_angle_gamma   90.00000000
_symmetry_Int_Tables_number   1
_chemical_formula_structural   NaCl
_chemical_formula_sum   'Na4 Cl4'
_cell_volume   245.07948882
_cell_formula_units_Z   4
loop_
 _symmetry_equiv_pos_site_id
 _symmetry_equiv_pos_as_xyz
  1  'x, y, z'
loop_
 _atom_site_type_symbol
 _atom_site_label
 _atom_site_symmetry_multiplicity
 _atom_site_fract_x
 _atom_site_fract_y
 _atom_site_fract_z
 _atom_site_occupancy
  Na  Na0  1  0.84591057  0.84591057  0.84591057  1.0
  Na  Na1  1  0.57672468  0.07672468  0.42327532  1.0
  Na  Na2  1  0.72436444  0.77563556  0.22436444  1.0
  Na  Na3  1  0.55032676  0.44967324  0.94967324  1.0
  Cl  Cl4  1  0.36425180  0.36425180  0.36425180  1.0
  Cl  Cl5  1  0.46886388  0.96886388  0.53113612  1.0
  Cl  Cl6  1  0.38959960  0.11040040  0.88959960  1.0
  Cl  Cl7  1  0.92250807  0.07749193  0.57749193  1.0
