# generated using pymatgen
data_NaCl
_symmetry_space_group_name_H-M   'P 1'
_cell_length_a   3.40328555
_cell_length_b   9.89512135
_cell_length_c   10.08801321
_cell_angle_alpha   90.00000000
_cell_angle_beta   90.00000000
_cell_angle_gamma   90.00000000
_symmetry_Int_Tables_number   1
_chemical_formula_structural   NaCl
_chemical_formula_sum   'Na4 Cl4'
_cell_volume   339.72316119
_cell_formula_units_Z   4
loop_
 _symmetry_equiv_pos_site_id
 _symmetry_equiv_pos_as_xyz
  1  'x, y, z'
loop_
 _atom_site_type_symbol
 _atom_site_label
 _atom_site_symmetry_multiplicity
 _atom_site_fract_x
 _atom_site_fract_y
 _atom_site_fract_z
 _atom_site_occupancy
  Na  Na0  1  0.93727019  0.71288168  0.48581944  1.0
  Na  Na1  1  0.60366963  0.37964897  0.19619285  1.0
  Na  Na2  1  0.79902164  0.27044548  0.49122188  1.0
  Na  Na3  1  0.21540095  0.79735148  0.70809388  1.0
  Cl  Cl4  1  0.30307123  0.50666386  0.24929029  1.0
  Cl  Cl5  1  0.99985125  0.77703285  0.93293071  1.0
  Cl  Cl6  1  0.21918951  0.33283120  0.88543077  1.0
  Cl  Cl7  1  0.25153678  0.19099277  0.07018432  1.0
