# generated using pymatgen
data_NaCl
_symmetry_space_group_name_H-M   'P 1'
_cell_length_a   3.87764719
_cell_length_b   12.27717119
_cell_length_c   11.56510005
_cell_angle_alpha   90.00000000
_cell_angle_beta   39.85458318
_cell_angle_gamma   90.00000000
_symmetry_Int_Tables_number   1
_chemical_formula_structural   NaCl
_chemical_formula_sum   'Na4 Cl4'
_cell_volume   352.83081138
_cell_formula_units_Z   4
loop_
 _symmetry_equiv_pos_site_id
 _symmetry_equiv_pos_as_xyz
  1  'x, y, z'
loop_
 _atom_site_type_symbol
 _atom_site_label
 _atom_site_symmetry_multiplicity
 _atom_site_fract_x
 _atom_site_fract_y
 _atom_site_fract_z
 _atom_site_occupancy
  Na  Na0  1  0.16596221  0.14572784  0.70228139  1.0
  Na  Na1  1  0.75065961  0.71042135  0.94151884  1.0
  Na  Na2  1  0.73207809  0.12643928  0.60541620  1.0
  Na  Na3  1  0.79012359  0.06980966  0.93478568  1.0
  Cl  Cl4  1  0.57637643  0.96790059  0.63985354  1.0
  Cl  Cl5  1  0.32242341  0.55882550  0.22788829  1.0
  Cl  Cl6  1  0.65431422  0.21160759  0.61115857  1.0
  Cl  Cl7  1  0.15891668  0.01822147  0.47723479  1.0
