# generated using pymatgen
data_NaCl
_symmetry_space_group_name_H-M   'P 1'
_cell_length_a   2.80670085
_cell_length_b   12.63078771
_cell_length_c   14.64269870
_cell_angle_alpha   90.00000000
_cell_angle_beta   45.78140258
_cell_angle_gamma   90.00000000
_symmetry_Int_Tables_number   1
_chemical_formula_structural   NaCl
_chemical_formula_sum   'Na4 Cl4'
_cell_volume   372.02794779
_cell_formula_units_Z   4
loop_
 _symmetry_equiv_pos_site_id
 _symmetry_equiv_pos_as_xyz
  1  'x, y, z'
loop_
 _atom_site_type_symbol
 _atom_site_label
 _atom_site_symmetry_multiplicity
 _atom_site_fract_x
 _atom_site_fract_y
 _atom_site_fract_z
 _atom_site_occupancy
  Na  Na0  1  0.00000000  0.67572020  0.00000000  1.0
  Na  Na1  1  0.50000000  0.22945066  0.00000000  1.0
  Na  Na2  1  0.00000000  0.13359560  0.00000000  1.0
  Na  Na3  1  0.50000000  0.61048502  0.00000000  1.0
  Cl  Cl4  1  0.72370777  0.91488723  0.72677768  1.0
  Cl  Cl5  1  0.69663674  0.04032443  0.22433188  1.0
  Cl  Cl6  1  0.19608153  0.55870512  0.65473467  1.0
  Cl  Cl7  1  0.23121850  0.36650825  0.27626863  1.0
