# generated using pymatgen
data_NaCl
_symmetry_space_group_name_H-M   'P 1'
_cell_length_a   4.86792217
_cell_length_b   6.88328362
_cell_length_c   8.66619544
_cell_angle_alpha   90.00000000
_cell_angle_beta   90.00000000
_cell_angle_gamma   90.00000000
_symmetry_Int_Tables_number   1
_chemical_formula_structural   NaCl
_chemical_formula_sum   'Na4 Cl4'
_cell_volume   290.38071459
_cell_formula_units_Z   4
loop_
 _symmetry_equiv_pos_site_id
 _symmetry_equiv_pos_as_xyz
  1  'x, y, z'
loop_
 _atom_site_type_symbol
 _atom_site_label
 _atom_site_symmetry_multiplicity
 _atom_site_fract_x
 _atom_site_fract_y
 _atom_site_fract_z
 _atom_site_occupancy
  Na  Na0  1  0.25712400  0.76887483  0.48634950  1.0
  Na  Na1  1  0.16297404  0.58411800  0.38464776  1.0
  Na  Na2  1  0.62613420  0.34305928  0.57557915  1.0
  Na  Na3  1  0.86285560  0.53006966  0.46654109  1.0
  Cl  Cl4  1  0.64943605  0.99946453  0.62932354  1.0
  Cl  Cl5  1  0.71160718  0.85420447  0.76460360  1.0
  Cl  Cl6  1  0.97649475  0.88241026  0.52176658  1.0
  Cl  Cl7  1  0.32930066  0.99982354  0.83137358  1.0
