# generated using pymatgen
data_NaCl
_symmetry_space_group_name_H-M   'P 1'
_cell_length_a   3.80924037
_cell_length_b   10.20034925
_cell_length_c   9.35259934
_cell_angle_alpha   90.00000000
_cell_angle_beta   44.51609444
_cell_angle_gamma   90.00000000
_symmetry_Int_Tables_number   1
_chemical_formula_structural   NaCl
_chemical_formula_sum   'Na4 Cl4'
_cell_volume   254.78370994
_cell_formula_units_Z   4
loop_
 _symmetry_equiv_pos_site_id
 _symmetry_equiv_pos_as_xyz
  1  'x, y, z'
loop_
 _atom_site_type_symbol
 _atom_site_label
 _atom_site_symmetry_multiplicity
 _atom_site_fract_x
 _atom_site_fract_y
 _atom_site_fract_z
 _atom_site_occupancy
  Na  Na0  1  0.13541079  0.74757664  0.76260503  1.0
  Na  Na1  1  0.69257588  0.72922787  0.48905793  1.0
  Na  Na2  1  0.31175317  0.61517046  0.60386918  1.0
  Na  Na3  1  0.24549163  0.61658838  0.46596078  1.0
  Cl  Cl4  1  0.63228722  0.00000000  0.68285390  1.0
  Cl  Cl5  1  0.81692349  0.50000000  0.74197265  1.0
  Cl  Cl6  1  0.72052033  0.00000000  0.46484732  1.0
  Cl  Cl7  1  0.62060329  0.50000000  0.91178747  1.0
