# generated using pymatgen
data_NaCl
_symmetry_space_group_name_H-M   'P 1'
_cell_length_a   3.52434770
_cell_length_b   14.69442179
_cell_length_c   7.18132542
_cell_angle_alpha   90.00000000
_cell_angle_beta   90.00000000
_cell_angle_gamma   90.00000000
_symmetry_Int_Tables_number   1
_chemical_formula_structural   NaCl
_chemical_formula_sum   'Na4 Cl4'
_cell_volume   371.90828795
_cell_formula_units_Z   4
loop_
 _symmetry_equiv_pos_site_id
 _symmetry_equiv_pos_as_xyz
  1  'x, y, z'
loop_
 _atom_site_type_symbol
 _atom_site_label
 _atom_site_symmetry_multiplicity
 _atom_site_fract_x
 _atom_site_fract_y
 _atom_site_fract_z
 _atom_site_occupancy
  Na  Na0  1  0.00000000  0.58906529  0.67753005  1.0
  Na  Na1  1  0.00000000  0.68604232  0.88986389  1.0
  Na  Na2  1  0.00000000  0.17350713  0.53696961  1.0
  Na  Na3  1  0.00000000  0.99949090  0.14941471  1.0
  Cl  Cl4  1  0.00000000  0.85852702  0.63834880  1.0
  Cl  Cl5  1  0.00000000  0.83993258  0.22108843  1.0
  Cl  Cl6  1  0.50000000  0.21613803  0.58302885  1.0
  Cl  Cl7  1  0.50000000  0.09063765  0.36719037  1.0
