# generated using pymatgen
data_NaCl
_symmetry_space_group_name_H-M   'P 1'
_cell_length_a   5.62597380
_cell_length_b   5.62597380
_cell_length_c   10.34386624
_cell_angle_alpha   90.00000000
_cell_angle_beta   90.00000000
_cell_angle_gamma   90.00000000
_symmetry_Int_Tables_number   1
_chemical_formula_structural   NaCl
_chemical_formula_sum   'Na4 Cl4'
_cell_volume   327.39972220
_cell_formula_units_Z   4
loop_
 _symmetry_equiv_pos_site_id
 _symmetry_equiv_pos_as_xyz
  1  'x, y, z'
loop_
 _atom_site_type_symbol
 _atom_site_label
 _atom_site_symmetry_multiplicity
 _atom_site_fract_x
 _atom_site_fract_y
 _atom_site_fract_z
 _atom_site_occupancy
  Na  Na0  1  0.90536173  0.67850116  0.61675901  1.0
  Na  Na1  1  0.35936390  0.62587987  0.96396898  1.0
  Na  Na2  1  0.71837619  0.55926850  0.87332654  1.0
  Na  Na3  1  0.14477304  0.88861469  0.21327123  1.0
  Cl  Cl4  1  0.50035499  0.78092373  0.46175058  1.0
  Cl  Cl5  1  0.84777615  0.73256355  0.01774374  1.0
  Cl  Cl6  1  0.99937851  0.67479362  0.93825605  1.0
  Cl  Cl7  1  0.32594888  0.67519800  0.43582600  1.0
