# generated using pymatgen
data_NaCl
_symmetry_space_group_name_H-M   'P 1'
_cell_length_a   5.54829908
_cell_length_b   5.54829908
_cell_length_c   5.54829908
_cell_angle_alpha   90.00000000
_cell_angle_beta   90.00000000
_cell_angle_gamma   90.00000000
_symmetry_Int_Tables_number   1
_chemical_formula_structural   NaCl
_chemical_formula_sum   'Na4 Cl4'
_cell_volume   170.79674540
_cell_formula_units_Z   4
loop_
 _symmetry_equiv_pos_site_id
 _symmetry_equiv_pos_as_xyz
  1  'x, y, z'
loop_
 _atom_site_type_symbol
 _atom_site_label
 _atom_site_symmetry_multiplicity
 _atom_site_fract_x
 _atom_site_fract_y
 _atom_site_fract_z
 _atom_site_occupancy
  Na  Na0  1  0.43119713  0.43119713  0.43119713  1.0
  Na  Na1  1  0.67595015  0.17595015  0.32404985  1.0
  Na  Na2  1  0.08623958  0.41376042  0.58623958  1.0
  Na  Na3  1  0.52593660  0.47406340  0.97406340  1.0
  Cl  Cl4  1  0.94942060  0.94942060  0.94942060  1.0
  Cl  Cl5  1  0.43632095  0.93632095  0.56367905  1.0
  Cl  Cl6  1  0.31773690  0.18226310  0.81773690  1.0
  Cl  Cl7  1  0.97377348  0.02622652  0.52622652  1.0
