# generated using pymatgen
data_NaCl
_symmetry_space_group_name_H-M   'P 1'
_cell_length_a   4.90639949
_cell_length_b   5.20586692
_cell_length_c   7.49435767
_cell_angle_alpha   90.00000000
_cell_angle_beta   27.80066413
_cell_angle_gamma   90.00000000
_symmetry_Int_Tables_number   1
_chemical_formula_structural   NaCl
_chemical_formula_sum   'Na4 Cl4'
_cell_volume   89.27832502
_cell_formula_units_Z   4
loop_
 _symmetry_equiv_pos_site_id
 _symmetry_equiv_pos_as_xyz
  1  'x, y, z'
loop_
 _atom_site_type_symbol
 _atom_site_label
 _atom_site_symmetry_multiplicity
 _atom_site_fract_x
 _atom_site_fract_y
 _atom_site_fract_z
 _atom_site_occupancy
  Na  Na0  1  0.12307193  0.74028844  0.51581705  1.0
  Na  Na1  1  0.47169246  0.82815666  0.56515447  1.0
  Na  Na2  1  0.75498517  0.60420127  0.51989545  1.0
  Na  Na3  1  0.14445528  0.07413841  0.51004279  1.0
  Cl  Cl4  1  0.62838367  0.99826293  0.75752011  1.0
  Cl  Cl5  1  0.75062875  0.56806553  0.27383289  1.0
  Cl  Cl6  1  0.43067212  0.20675386  0.69931726  1.0
  Cl  Cl7  1  0.80424448  0.30008818  0.09175990  1.0
