# generated using pymatgen
data_NaCl
_symmetry_space_group_name_H-M   'P 1'
_cell_length_a   3.04528080
_cell_length_b   3.04528080
_cell_length_c   14.45502784
_cell_angle_alpha   90.00000000
_cell_angle_beta   90.00000000
_cell_angle_gamma   120.00000000
_symmetry_Int_Tables_number   1
_chemical_formula_structural   NaCl
_chemical_formula_sum   'Na4 Cl4'
_cell_volume   116.09252385
_cell_formula_units_Z   4
loop_
 _symmetry_equiv_pos_site_id
 _symmetry_equiv_pos_as_xyz
  1  'x, y, z'
loop_
 _atom_site_type_symbol
 _atom_site_label
 _atom_site_symmetry_multiplicity
 _atom_site_fract_x
 _atom_site_fract_y
 _atom_site_fract_z
 _atom_site_occupancy
  Na  Na0  1  0.00000000  0.00000000  0.75720199  1.0
  Na  Na1  1  0.94768016  0.00000000  0.02293994  1.0
  Na  Na2  1  0.00000000  0.52332397  0.51986251  1.0
  Na  Na3  1  0.67093248  0.67093248  0.38989749  1.0
  Cl  Cl4  1  0.00000000  0.00000000  0.26545708  1.0
  Cl  Cl5  1  0.00000000  0.00000000  0.58419067  1.0
  Cl  Cl6  1  0.33333333  0.66666667  0.62976280  1.0
  Cl  Cl7  1  0.66666667  0.33333333  0.72708906  1.0
