# generated using pymatgen
data_NaCl
_symmetry_space_group_name_H-M   'P 1'
_cell_length_a   3.73491429
_cell_length_b   3.73491429
_cell_length_c   15.04384828
_cell_angle_alpha   90.00000000
_cell_angle_beta   90.00000000
_cell_angle_gamma   90.00000000
_symmetry_Int_Tables_number   1
_chemical_formula_structural   NaCl
_chemical_formula_sum   'Na4 Cl4'
_cell_volume   209.85543660
_cell_formula_units_Z   4
loop_
 _symmetry_equiv_pos_site_id
 _symmetry_equiv_pos_as_xyz
  1  'x, y, z'
loop_
 _atom_site_type_symbol
 _atom_site_label
 _atom_site_symmetry_multiplicity
 _atom_site_fract_x
 _atom_site_fract_y
 _atom_site_fract_z
 _atom_site_occupancy
  Na  Na0  1  0.45127290  0.95127290  0.31960904  1.0
  Na  Na1  1  0.15914461  0.65914461  0.52700645  1.0
  Na  Na2  1  0.57316910  0.92683090  0.44020587  1.0
  Na  Na3  1  0.68815708  0.81184292  0.12486495  1.0
  Cl  Cl4  1  0.00000000  0.00000000  0.83404373  1.0
  Cl  Cl5  1  0.50000000  0.50000000  0.50669729  1.0
  Cl  Cl6  1  0.00000000  0.00000000  0.76854573  1.0
  Cl  Cl7  1  0.50000000  0.50000000  0.37862369  1.0
