# generated using pymatgen
data_NaCl
_symmetry_space_group_name_H-M   'P 1'
_cell_length_a   6.09129271
_cell_length_b   6.09129271
_cell_length_c   10.35761658
_cell_angle_alpha   90.00000000
_cell_angle_beta   90.00000000
_cell_angle_gamma   90.00000000
_symmetry_Int_Tables_number   1
_chemical_formula_structural   NaCl
_chemical_formula_sum   'Na4 Cl4'
_cell_volume   384.30741961
_cell_formula_units_Z   4
loop_
 _symmetry_equiv_pos_site_id
 _symmetry_equiv_pos_as_xyz
  1  'x, y, z'
loop_
 _atom_site_type_symbol
 _atom_site_label
 _atom_site_symmetry_multiplicity
 _atom_site_fract_x
 _atom_site_fract_y
 _atom_site_fract_z
 _atom_site_occupancy
  Na  Na0  1  0.56247140  0.63444834  0.22852225  1.0
  Na  Na1  1  0.16252384  0.33708198  0.06682879  1.0
  Na  Na2  1  0.95508010  0.77346865  0.69538919  1.0
  Na  Na3  1  0.24058366  0.87166878  0.91010943  1.0
  Cl  Cl4  1  0.13874161  0.83225743  0.80943207  1.0
  Cl  Cl5  1  0.92780055  0.81264139  0.34200164  1.0
  Cl  Cl6  1  0.94832703  0.61491834  0.02654717  1.0
  Cl  Cl7  1  0.50933171  0.56630980  0.56225870  1.0
