# generated using pymatgen
data_NaCl
_symmetry_space_group_name_H-M   'P 1'
_cell_length_a   7.02351961
_cell_length_b   7.02351961
_cell_length_c   6.12642166
_cell_angle_alpha   90.00000000
_cell_angle_beta   90.00000000
_cell_angle_gamma   90.00000000
_symmetry_Int_Tables_number   1
_chemical_formula_structural   NaCl
_chemical_formula_sum   'Na4 Cl4'
_cell_volume   302.21532498
_cell_formula_units_Z   4
loop_
 _symmetry_equiv_pos_site_id
 _symmetry_equiv_pos_as_xyz
  1  'x, y, z'
loop_
 _atom_site_type_symbol
 _atom_site_label
 _atom_site_symmetry_multiplicity
 _atom_site_fract_x
 _atom_site_fract_y
 _atom_site_fract_z
 _atom_site_occupancy
  Na  Na0  1  0.23612960  0.23612960  0.00000000  1.0
  Na  Na1  1  0.22939413  0.22939413  0.50000000  1.0
  Na  Na2  1  0.78648947  0.21351053  0.25000000  1.0
  Na  Na3  1  0.39960138  0.60039862  0.75000000  1.0
  Cl  Cl4  1  0.67861628  0.67861628  0.00000000  1.0
  Cl  Cl5  1  0.68816241  0.68816241  0.50000000  1.0
  Cl  Cl6  1  0.90962003  0.09037997  0.25000000  1.0
  Cl  Cl7  1  0.63373095  0.36626905  0.75000000  1.0
