# generated using pymatgen
data_NaCl
_symmetry_space_group_name_H-M   'P 1'
_cell_length_a   7.70524752
_cell_length_b   7.70524752
_cell_length_c   6.54782392
_cell_angle_alpha   90.00000000
_cell_angle_beta   90.00000000
_cell_angle_gamma   90.00000000
_symmetry_Int_Tables_number   1
_chemical_formula_structural   NaCl
_chemical_formula_sum   'Na4 Cl4'
_cell_volume   388.74980201
_cell_formula_units_Z   4
loop_
 _symmetry_equiv_pos_site_id
 _symmetry_equiv_pos_as_xyz
  1  'x, y, z'
loop_
 _atom_site_type_symbol
 _atom_site_label
 _atom_site_symmetry_multiplicity
 _atom_site_fract_x
 _atom_site_fract_y
 _atom_site_fract_z
 _atom_site_occupancy
  Na  Na0  1  0.03578287  0.44841367  0.49541624  1.0
  Na  Na1  1  0.66619500  0.71132141  0.96542424  1.0
  Na  Na2  1  0.68821865  0.04869194  0.38356098  1.0
  Na  Na3  1  0.30223156  0.59929597  0.65180486  1.0
  Cl  Cl4  1  0.78313536  0.61443254  0.15831137  1.0
  Cl  Cl5  1  0.77762243  0.68135032  0.57492495  1.0
  Cl  Cl6  1  0.29537443  0.83403944  0.32456413  1.0
  Cl  Cl7  1  0.72094251  0.09950127  0.75456368  1.0
