# generated using pymatgen
data_NaCl
_symmetry_space_group_name_H-M   'P 1'
_cell_length_a   5.24284979
_cell_length_b   5.24284979
_cell_length_c   9.42430779
_cell_angle_alpha   90.00000000
_cell_angle_beta   90.00000000
_cell_angle_gamma   90.00000000
_symmetry_Int_Tables_number   1
_chemical_formula_structural   NaCl
_chemical_formula_sum   'Na4 Cl4'
_cell_volume   259.05041460
_cell_formula_units_Z   4
loop_
 _symmetry_equiv_pos_site_id
 _symmetry_equiv_pos_as_xyz
  1  'x, y, z'
loop_
 _atom_site_type_symbol
 _atom_site_label
 _atom_site_symmetry_multiplicity
 _atom_site_fract_x
 _atom_site_fract_y
 _atom_site_fract_z
 _atom_site_occupancy
  Na  Na0  1  0.12994579  0.24014732  0.30149975  1.0
  Na  Na1  1  0.79803417  0.68135181  0.85164262  1.0
  Na  Na2  1  0.94685266  0.04230509  0.33685922  1.0
  Na  Na3  1  0.46450574  0.48970850  0.43628201  1.0
  Cl  Cl4  1  0.79684348  0.66222865  0.23302620  1.0
  Cl  Cl5  1  0.36128301  0.59400164  0.77101240  1.0
  Cl  Cl6  1  0.32468619  0.76834132  0.36060442  1.0
  Cl  Cl7  1  0.77369801  0.22772337  0.82928597  1.0
