# generated using pymatgen
data_NaCl
_symmetry_space_group_name_H-M   'P 1'
_cell_length_a   7.62215058
_cell_length_b   7.62215058
_cell_length_c   6.39078025
_cell_angle_alpha   90.00000000
_cell_angle_beta   90.00000000
_cell_angle_gamma   90.00000000
_symmetry_Int_Tables_number   1
_chemical_formula_structural   NaCl
_chemical_formula_sum   'Na4 Cl4'
_cell_volume   371.28630710
_cell_formula_units_Z   4
loop_
 _symmetry_equiv_pos_site_id
 _symmetry_equiv_pos_as_xyz
  1  'x, y, z'
loop_
 _atom_site_type_symbol
 _atom_site_label
 _atom_site_symmetry_multiplicity
 _atom_site_fract_x
 _atom_site_fract_y
 _atom_site_fract_z
 _atom_site_occupancy
  Na  Na0  1  0.07914197  0.21617987  0.62658102  1.0
  Na  Na1  1  0.81514234  0.66445080  0.91270598  1.0
  Na  Na2  1  0.78393750  0.06403932  0.70917234  1.0
  Na  Na3  1  0.26241603  0.53181425  0.96177639  1.0
  Cl  Cl4  1  0.76612105  0.46117377  0.19356496  1.0
  Cl  Cl5  1  0.81725655  0.42218857  0.88397103  1.0
  Cl  Cl6  1  0.38237276  0.63492510  0.94928668  1.0
  Cl  Cl7  1  0.84780984  0.39357878  0.46399471  1.0
