# generated using pymatgen
data_NaCl
_symmetry_space_group_name_H-M   'P 1'
_cell_length_a   7.50221020
_cell_length_b   7.50221020
_cell_length_c   7.27991706
_cell_angle_alpha   90.00000000
_cell_angle_beta   90.00000000
_cell_angle_gamma   90.00000000
_symmetry_Int_Tables_number   1
_chemical_formula_structural   NaCl
_chemical_formula_sum   'Na4 Cl4'
_cell_volume   409.73672128
_cell_formula_units_Z   4
loop_
 _symmetry_equiv_pos_site_id
 _symmetry_equiv_pos_as_xyz
  1  'x, y, z'
loop_
 _atom_site_type_symbol
 _atom_site_label
 _atom_site_symmetry_multiplicity
 _atom_site_fract_x
 _atom_site_fract_y
 _atom_site_fract_z
 _atom_site_occupancy
  Na  Na0  1  0.00000000  0.68520053  0.00000000  1.0
  Na  Na1  1  0.00000000  0.77717936  0.50000000  1.0
  Na  Na2  1  0.91091501  0.00000000  0.25000000  1.0
  Na  Na3  1  0.38992869  0.00000000  0.75000000  1.0
  Cl  Cl4  1  0.68342849  0.68342849  0.37500000  1.0
  Cl  Cl5  1  0.77926521  0.77926521  0.87500000  1.0
  Cl  Cl6  1  0.35904915  0.64095085  0.62500000  1.0
  Cl  Cl7  1  0.89180429  0.10819571  0.12500000  1.0
