# generated using pymatgen
data_NaCl
_symmetry_space_group_name_H-M   'P 1'
_cell_length_a   5.99632224
_cell_length_b   5.99632224
_cell_length_c   6.33344567
_cell_angle_alpha   90.00000000
_cell_angle_beta   90.00000000
_cell_angle_gamma   90.00000000
_symmetry_Int_Tables_number   1
_chemical_formula_structural   NaCl
_chemical_formula_sum   'Na4 Cl4'
_cell_volume   227.72461507
_cell_formula_units_Z   4
loop_
 _symmetry_equiv_pos_site_id
 _symmetry_equiv_pos_as_xyz
  1  'x, y, z'
loop_
 _atom_site_type_symbol
 _atom_site_label
 _atom_site_symmetry_multiplicity
 _atom_site_fract_x
 _atom_site_fract_y
 _atom_site_fract_z
 _atom_site_occupancy
  Na  Na0  1  0.52747749  0.52747749  0.00000000  1.0
  Na  Na1  1  0.62171394  0.62171394  0.50000000  1.0
  Na  Na2  1  0.36292333  0.63707667  0.25000000  1.0
  Na  Na3  1  0.96814037  0.03185963  0.75000000  1.0
  Cl  Cl4  1  0.83701305  0.83701305  0.00000000  1.0
  Cl  Cl5  1  0.84464461  0.84464461  0.50000000  1.0
  Cl  Cl6  1  0.83333246  0.16666754  0.25000000  1.0
  Cl  Cl7  1  0.37800140  0.62199860  0.75000000  1.0
