# generated using pymatgen
data_NaCl
_symmetry_space_group_name_H-M   'P 1'
_cell_length_a   5.22718654
_cell_length_b   5.22718654
_cell_length_c   5.22718654
_cell_angle_alpha   90.00000000
_cell_angle_beta   90.00000000
_cell_angle_gamma   90.00000000
_symmetry_Int_Tables_number   1
_chemical_formula_structural   NaCl
_chemical_formula_sum   'Na4 Cl4'
_cell_volume   142.82492230
_cell_formula_units_Z   4
loop_
 _symmetry_equiv_pos_site_id
 _symmetry_equiv_pos_as_xyz
  1  'x, y, z'
loop_
 _atom_site_type_symbol
 _atom_site_label
 _atom_site_symmetry_multiplicity
 _atom_site_fract_x
 _atom_site_fract_y
 _atom_site_fract_z
 _atom_site_occupancy
  Na  Na0  1  0.02005821  0.02005821  0.02005821  1.0
  Na  Na1  1  0.38787017  0.88787017  0.61212983  1.0
  Na  Na2  1  0.99903119  0.50096881  0.49903119  1.0
  Na  Na3  1  0.95386574  0.04613426  0.54613426  1.0
  Cl  Cl4  1  0.90044717  0.90044717  0.90044717  1.0
  Cl  Cl5  1  0.19637767  0.69637767  0.80362233  1.0
  Cl  Cl6  1  0.27951669  0.22048331  0.77951669  1.0
  Cl  Cl7  1  0.36132160  0.63867840  0.13867840  1.0
