# generated using pymatgen
data_NaCl
_symmetry_space_group_name_H-M   'P 1'
_cell_length_a   7.33099221
_cell_length_b   7.33099221
_cell_length_c   6.69435079
_cell_angle_alpha   90.00000000
_cell_angle_beta   90.00000000
_cell_angle_gamma   90.00000000
_symmetry_Int_Tables_number   1
_chemical_formula_structural   NaCl
_chemical_formula_sum   'Na4 Cl4'
_cell_volume   359.77748543
_cell_formula_units_Z   4
loop_
 _symmetry_equiv_pos_site_id
 _symmetry_equiv_pos_as_xyz
  1  'x, y, z'
loop_
 _atom_site_type_symbol
 _atom_site_label
 _atom_site_symmetry_multiplicity
 _atom_site_fract_x
 _atom_site_fract_y
 _atom_site_fract_z
 _atom_site_occupancy
  Na  Na0  1  0.00026915  0.25613053  0.77932422  1.0
  Na  Na1  1  0.68042633  0.65155976  0.02591746  1.0
  Na  Na2  1  0.71519994  0.03143589  0.23060134  1.0
  Na  Na3  1  0.55665286  0.57038123  0.40988361  1.0
  Cl  Cl4  1  0.69670086  0.43008116  0.11943826  1.0
  Cl  Cl5  1  0.78031717  0.53645958  0.85503728  1.0
  Cl  Cl6  1  0.26762535  0.74111737  0.43467292  1.0
  Cl  Cl7  1  0.86228972  0.06092467  0.82395562  1.0
