# generated using pymatgen
data_NaCl
_symmetry_space_group_name_H-M   'P 1'
_cell_length_a   5.45090975
_cell_length_b   5.45090975
_cell_length_c   2.60270728
_cell_angle_alpha   90.00000000
_cell_angle_beta   90.00000000
_cell_angle_gamma   90.00000000
_symmetry_Int_Tables_number   1
_chemical_formula_structural   NaCl
_chemical_formula_sum   'Na4 Cl4'
_cell_volume   77.33272430
_cell_formula_units_Z   4
loop_
 _symmetry_equiv_pos_site_id
 _symmetry_equiv_pos_as_xyz
  1  'x, y, z'
loop_
 _atom_site_type_symbol
 _atom_site_label
 _atom_site_symmetry_multiplicity
 _atom_site_fract_x
 _atom_site_fract_y
 _atom_site_fract_z
 _atom_site_occupancy
  Na  Na0  1  0.16434901  0.03341264  0.18020332  1.0
  Na  Na1  1  0.67096390  0.75717507  0.01290191  1.0
  Na  Na2  1  0.80947183  0.02901817  0.55066923  1.0
  Na  Na3  1  0.06591496  0.53120682  0.53305411  1.0
  Cl  Cl4  1  0.81754244  0.64477036  0.39712062  1.0
  Cl  Cl5  1  0.56425755  0.32648912  0.92188937  1.0
  Cl  Cl6  1  0.46094039  0.55405368  0.61716302  1.0
  Cl  Cl7  1  0.81625053  0.35166307  0.75200673  1.0
