# generated using pymatgen
data_NaCl
_symmetry_space_group_name_H-M   'P 1'
_cell_length_a   4.60829457
_cell_length_b   4.60829457
_cell_length_c   4.60829457
_cell_angle_alpha   90.00000000
_cell_angle_beta   90.00000000
_cell_angle_gamma   90.00000000
_symmetry_Int_Tables_number   1
_chemical_formula_structural   NaCl
_chemical_formula_sum   'Na4 Cl4'
_cell_volume   97.86348931
_cell_formula_units_Z   4
loop_
 _symmetry_equiv_pos_site_id
 _symmetry_equiv_pos_as_xyz
  1  'x, y, z'
loop_
 _atom_site_type_symbol
 _atom_site_label
 _atom_site_symmetry_multiplicity
 _atom_site_fract_x
 _atom_site_fract_y
 _atom_site_fract_z
 _atom_site_occupancy
  Na  Na0  1  0.07939885  0.07939885  0.07939885  1.0
  Na  Na1  1  0.18885286  0.68885286  0.81114714  1.0
  Na  Na2  1  0.88675488  0.61324512  0.38675488  1.0
  Na  Na3  1  0.95547031  0.04452969  0.54452969  1.0
  Cl  Cl4  1  0.67854543  0.67854543  0.67854543  1.0
  Cl  Cl5  1  0.39302135  0.89302135  0.60697865  1.0
  Cl  Cl6  1  0.61024896  0.88975104  0.11024896  1.0
  Cl  Cl7  1  0.31500856  0.68499144  0.18499144  1.0
