# generated using pymatgen
data_NaCl
_symmetry_space_group_name_H-M   'P 1'
_cell_length_a   4.26272688
_cell_length_b   20.22262355
_cell_length_c   4.13035878
_cell_angle_alpha   90.00000000
_cell_angle_beta   90.00000000
_cell_angle_gamma   90.00000000
_symmetry_Int_Tables_number   1
_chemical_formula_structural   NaCl
_chemical_formula_sum   'Na4 Cl4'
_cell_volume   356.05146979
_cell_formula_units_Z   4
loop_
 _symmetry_equiv_pos_site_id
 _symmetry_equiv_pos_as_xyz
  1  'x, y, z'
loop_
 _atom_site_type_symbol
 _atom_site_label
 _atom_site_symmetry_multiplicity
 _atom_site_fract_x
 _atom_site_fract_y
 _atom_site_fract_z
 _atom_site_occupancy
  Na  Na0  1  0.00000000  0.50192465  0.65353040  1.0
  Na  Na1  1  0.00000000  0.68780457  0.00511557  1.0
  Na  Na2  1  0.50000000  0.94245946  0.03277522  1.0
  Na  Na3  1  0.50000000  0.33167311  0.12452471  1.0
  Cl  Cl4  1  0.00000000  0.29708623  0.94317567  1.0
  Cl  Cl5  1  0.00000000  0.57997247  0.04699573  1.0
  Cl  Cl6  1  0.50000000  0.23791947  0.26393311  1.0
  Cl  Cl7  1  0.50000000  0.43499212  0.59445693  1.0
