# generated using pymatgen
data_NaCl
_symmetry_space_group_name_H-M   'P 1'
_cell_length_a   5.38720460
_cell_length_b   5.38720460
_cell_length_c   9.72351090
_cell_angle_alpha   90.00000000
_cell_angle_beta   90.00000000
_cell_angle_gamma   90.00000000
_symmetry_Int_Tables_number   1
_chemical_formula_structural   NaCl
_chemical_formula_sum   'Na4 Cl4'
_cell_volume   282.19547472
_cell_formula_units_Z   4
loop_
 _symmetry_equiv_pos_site_id
 _symmetry_equiv_pos_as_xyz
  1  'x, y, z'
loop_
 _atom_site_type_symbol
 _atom_site_label
 _atom_site_symmetry_multiplicity
 _atom_site_fract_x
 _atom_site_fract_y
 _atom_site_fract_z
 _atom_site_occupancy
  Na  Na0  1  0.55358385  0.55358385  0.77644651  1.0
  Na  Na1  1  0.67732486  0.67732486  0.60578228  1.0
  Na  Na2  1  0.81850592  0.18149408  0.54291710  1.0
  Na  Na3  1  0.10650378  0.89349622  0.07617437  1.0
  Cl  Cl4  1  0.83082799  0.83082799  0.54366504  1.0
  Cl  Cl5  1  0.51632009  0.51632009  0.40724290  1.0
  Cl  Cl6  1  0.06287280  0.93712720  0.63935546  1.0
  Cl  Cl7  1  0.28760891  0.71239109  0.83459479  1.0
