# generated using pymatgen
data_NaCl
_symmetry_space_group_name_H-M   'P 1'
_cell_length_a   2.02700009
_cell_length_b   11.13095835
_cell_length_c   10.81454939
_cell_angle_alpha   90.00000000
_cell_angle_beta   90.00000000
_cell_angle_gamma   90.00000000
_symmetry_Int_Tables_number   1
_chemical_formula_structural   NaCl
_chemical_formula_sum   'Na4 Cl4'
_cell_volume   244.00276857
_cell_formula_units_Z   4
loop_
 _symmetry_equiv_pos_site_id
 _symmetry_equiv_pos_as_xyz
  1  'x, y, z'
loop_
 _atom_site_type_symbol
 _atom_site_label
 _atom_site_symmetry_multiplicity
 _atom_site_fract_x
 _atom_site_fract_y
 _atom_site_fract_z
 _atom_site_occupancy
  Na  Na0  1  0.00000000  0.81838221  0.30318578  1.0
  Na  Na1  1  0.00000000  0.17705660  0.58763710  1.0
  Na  Na2  1  0.50000000  0.62102926  0.85783506  1.0
  Na  Na3  1  0.50000000  0.30082398  0.99245626  1.0
  Cl  Cl4  1  0.00000000  0.00000000  0.32269013  1.0
  Cl  Cl5  1  0.50000000  0.50000000  0.27621616  1.0
  Cl  Cl6  1  0.00000000  0.50000000  0.34328377  1.0
  Cl  Cl7  1  0.50000000  0.00000000  0.26127151  1.0
