# generated using pymatgen
data_NaCl
_symmetry_space_group_name_H-M   'P 1'
_cell_length_a   6.37550744
_cell_length_b   6.37550744
_cell_length_c   8.03307298
_cell_angle_alpha   90.00000000
_cell_angle_beta   90.00000000
_cell_angle_gamma   120.00000000
_symmetry_Int_Tables_number   1
_chemical_formula_structural   NaCl
_chemical_formula_sum   'Na4 Cl4'
_cell_volume   282.77555145
_cell_formula_units_Z   4
loop_
 _symmetry_equiv_pos_site_id
 _symmetry_equiv_pos_as_xyz
  1  'x, y, z'
loop_
 _atom_site_type_symbol
 _atom_site_label
 _atom_site_symmetry_multiplicity
 _atom_site_fract_x
 _atom_site_fract_y
 _atom_site_fract_z
 _atom_site_occupancy
  Na  Na0  1  0.00000000  0.00000000  0.70409485  1.0
  Na  Na1  1  0.60838027  0.00000000  0.53417280  1.0
  Na  Na2  1  0.00000000  0.98033298  0.04334155  1.0
  Na  Na3  1  0.31218701  0.31218701  0.82062972  1.0
  Cl  Cl4  1  0.33333333  0.66666667  0.98172331  1.0
  Cl  Cl5  1  0.66666667  0.33333333  0.70795971  1.0
  Cl  Cl6  1  0.33333333  0.66666667  0.28034536  1.0
  Cl  Cl7  1  0.66666667  0.33333333  0.06295407  1.0
