# generated using pymatgen
data_NaCl
_symmetry_space_group_name_H-M   'P 1'
_cell_length_a   6.38585515
_cell_length_b   6.38585515
_cell_length_c   6.38585515
_cell_angle_alpha   90.00000000
_cell_angle_beta   90.00000000
_cell_angle_gamma   90.00000000
_symmetry_Int_Tables_number   1
_chemical_formula_structural   NaCl
_chemical_formula_sum   'Na4 Cl4'
_cell_volume   260.40971948
_cell_formula_units_Z   4
loop_
 _symmetry_equiv_pos_site_id
 _symmetry_equiv_pos_as_xyz
  1  'x, y, z'
loop_
 _atom_site_type_symbol
 _atom_site_label
 _atom_site_symmetry_multiplicity
 _atom_site_fract_x
 _atom_site_fract_y
 _atom_site_fract_z
 _atom_site_occupancy
  Na  Na0  1  0.72026581  0.72026581  0.72026581  1.0
  Na  Na1  1  0.98067509  0.48067509  0.01932491  1.0
  Na  Na2  1  0.13377259  0.36622741  0.63377259  1.0
  Na  Na3  1  0.38614116  0.61385884  0.11385884  1.0
  Cl  Cl4  1  0.97776676  0.97776676  0.97776676  1.0
  Cl  Cl5  1  0.34644435  0.84644435  0.65355565  1.0
  Cl  Cl6  1  0.56958849  0.93041151  0.06958849  1.0
  Cl  Cl7  1  0.75252082  0.24747918  0.74747918  1.0
