# generated using pymatgen
data_NaCl
_symmetry_space_group_name_H-M   'P 1'
_cell_length_a   7.41738963
_cell_length_b   7.41738963
_cell_length_c   2.08226042
_cell_angle_alpha   90.00000000
_cell_angle_beta   90.00000000
_cell_angle_gamma   90.00000000
_symmetry_Int_Tables_number   1
_chemical_formula_structural   NaCl
_chemical_formula_sum   'Na4 Cl4'
_cell_volume   114.56111440
_cell_formula_units_Z   4
loop_
 _symmetry_equiv_pos_site_id
 _symmetry_equiv_pos_as_xyz
  1  'x, y, z'
loop_
 _atom_site_type_symbol
 _atom_site_label
 _atom_site_symmetry_multiplicity
 _atom_site_fract_x
 _atom_site_fract_y
 _atom_site_fract_z
 _atom_site_occupancy
  Na  Na0  1  0.68456453  0.18456453  0.00000000  1.0
  Na  Na1  1  0.38605652  0.88605652  0.00000000  1.0
  Na  Na2  1  0.72676519  0.77323481  0.00000000  1.0
  Na  Na3  1  0.20639282  0.29360718  0.00000000  1.0
  Cl  Cl4  1  0.33384979  0.83384979  0.50000000  1.0
  Cl  Cl5  1  0.52242969  0.02242969  0.50000000  1.0
  Cl  Cl6  1  0.77228661  0.72771339  0.50000000  1.0
  Cl  Cl7  1  0.87874245  0.62125755  0.50000000  1.0
