# generated using pymatgen
data_NaCl
_symmetry_space_group_name_H-M   'P 1'
_cell_length_a   5.21978589
_cell_length_b   7.57716279
_cell_length_c   7.87291385
_cell_angle_alpha   90.00000000
_cell_angle_beta   90.00000000
_cell_angle_gamma   90.00000000
_symmetry_Int_Tables_number   1
_chemical_formula_structural   NaCl
_chemical_formula_sum   'Na4 Cl4'
_cell_volume   311.38293374
_cell_formula_units_Z   4
loop_
 _symmetry_equiv_pos_site_id
 _symmetry_equiv_pos_as_xyz
  1  'x, y, z'
loop_
 _atom_site_type_symbol
 _atom_site_label
 _atom_site_symmetry_multiplicity
 _atom_site_fract_x
 _atom_site_fract_y
 _atom_site_fract_z
 _atom_site_occupancy
  Na  Na0  1  0.70499926  0.55279577  0.74084412  1.0
  Na  Na1  1  0.92742165  0.64798979  0.04188939  1.0
  Na  Na2  1  0.32607358  0.53579533  0.50098759  1.0
  Na  Na3  1  0.35387323  0.22787273  0.68349535  1.0
  Cl  Cl4  1  0.14880585  0.38472109  0.98330258  1.0
  Cl  Cl5  1  0.13536502  0.64909203  0.98265110  1.0
  Cl  Cl6  1  0.20397104  0.18303412  0.84986395  1.0
  Cl  Cl7  1  0.67882731  0.02574071  0.17914251  1.0
