# generated using pymatgen
data_NaCl
_symmetry_space_group_name_H-M   'P 1'
_cell_length_a   4.54064741
_cell_length_b   4.54064741
_cell_length_c   15.14994335
_cell_angle_alpha   90.00000000
_cell_angle_beta   90.00000000
_cell_angle_gamma   90.00000000
_symmetry_Int_Tables_number   1
_chemical_formula_structural   NaCl
_chemical_formula_sum   'Na4 Cl4'
_cell_volume   312.35363738
_cell_formula_units_Z   4
loop_
 _symmetry_equiv_pos_site_id
 _symmetry_equiv_pos_as_xyz
  1  'x, y, z'
loop_
 _atom_site_type_symbol
 _atom_site_label
 _atom_site_symmetry_multiplicity
 _atom_site_fract_x
 _atom_site_fract_y
 _atom_site_fract_z
 _atom_site_occupancy
  Na  Na0  1  0.63705670  0.56835952  0.24464882  1.0
  Na  Na1  1  0.49066991  0.55972630  0.00399518  1.0
  Na  Na2  1  0.35341338  0.82966888  0.60186786  1.0
  Na  Na3  1  0.12995108  0.44085249  0.88175495  1.0
  Cl  Cl4  1  0.55120425  0.40803734  0.67635930  1.0
  Cl  Cl5  1  0.81855960  0.42540246  0.90006377  1.0
  Cl  Cl6  1  0.22491150  0.95207095  0.93485522  1.0
  Cl  Cl7  1  0.33553925  0.72506187  0.98248329  1.0
