# generated using pymatgen
data_NaCl
_symmetry_space_group_name_H-M   'P 1'
_cell_length_a   6.98757984
_cell_length_b   6.98757984
_cell_length_c   6.98757984
_cell_angle_alpha   90.00000000
_cell_angle_beta   90.00000000
_cell_angle_gamma   90.00000000
_symmetry_Int_Tables_number   1
_chemical_formula_structural   NaCl
_chemical_formula_sum   'Na4 Cl4'
_cell_volume   341.17747403
_cell_formula_units_Z   4
loop_
 _symmetry_equiv_pos_site_id
 _symmetry_equiv_pos_as_xyz
  1  'x, y, z'
loop_
 _atom_site_type_symbol
 _atom_site_label
 _atom_site_symmetry_multiplicity
 _atom_site_fract_x
 _atom_site_fract_y
 _atom_site_fract_z
 _atom_site_occupancy
  Na  Na0  1  0.61530786  0.61530786  0.61530786  1.0
  Na  Na1  1  0.86341854  0.36341854  0.13658146  1.0
  Na  Na2  1  0.04348634  0.45651366  0.54348634  1.0
  Na  Na3  1  0.18121571  0.81878429  0.31878429  1.0
  Cl  Cl4  1  0.19254738  0.19254738  0.19254738  1.0
  Cl  Cl5  1  0.14248655  0.64248655  0.85751345  1.0
  Cl  Cl6  1  0.37729110  0.12270890  0.87729110  1.0
  Cl  Cl7  1  0.82424137  0.17575863  0.67575863  1.0
