# generated using pymatgen
data_NaCl
_symmetry_space_group_name_H-M   'P 1'
_cell_length_a   2.46894566
_cell_length_b   13.39446647
_cell_length_c   11.40451619
_cell_angle_alpha   90.00000000
_cell_angle_beta   90.00000000
_cell_angle_gamma   90.00000000
_symmetry_Int_Tables_number   1
_chemical_formula_structural   NaCl
_chemical_formula_sum   'Na4 Cl4'
_cell_volume   377.14974375
_cell_formula_units_Z   4
loop_
 _symmetry_equiv_pos_site_id
 _symmetry_equiv_pos_as_xyz
  1  'x, y, z'
loop_
 _atom_site_type_symbol
 _atom_site_label
 _atom_site_symmetry_multiplicity
 _atom_site_fract_x
 _atom_site_fract_y
 _atom_site_fract_z
 _atom_site_occupancy
  Na  Na0  1  0.00000000  0.50000000  0.24849686  1.0
  Na  Na1  1  0.50000000  0.50000000  0.74670495  1.0
  Na  Na2  1  0.25000000  0.39095135  0.45873227  1.0
  Na  Na3  1  0.75000000  0.87311086  0.12164503  1.0
  Cl  Cl4  1  0.00000000  0.00000000  0.90988299  1.0
  Cl  Cl5  1  0.50000000  0.00000000  0.45813646  1.0
  Cl  Cl6  1  0.25000000  0.16263407  0.39955245  1.0
  Cl  Cl7  1  0.75000000  0.63779029  0.36075405  1.0
