# generated using pymatgen
data_NaCl
_symmetry_space_group_name_H-M   'P 1'
_cell_length_a   6.37565632
_cell_length_b   12.04669259
_cell_length_c   13.27808575
_cell_angle_alpha   90.00000000
_cell_angle_beta   22.45565647
_cell_angle_gamma   90.00000000
_symmetry_Int_Tables_number   1
_chemical_formula_structural   NaCl
_chemical_formula_sum   'Na4 Cl4'
_cell_volume   389.54309078
_cell_formula_units_Z   4
loop_
 _symmetry_equiv_pos_site_id
 _symmetry_equiv_pos_as_xyz
  1  'x, y, z'
loop_
 _atom_site_type_symbol
 _atom_site_label
 _atom_site_symmetry_multiplicity
 _atom_site_fract_x
 _atom_site_fract_y
 _atom_site_fract_z
 _atom_site_occupancy
  Na  Na0  1  0.63030992  0.59963879  0.21821554  1.0
  Na  Na1  1  0.46759462  0.49730808  0.51314148  1.0
  Na  Na2  1  0.84778758  0.17493491  0.30540115  1.0
  Na  Na3  1  0.82265990  0.28994160  0.86746819  1.0
  Cl  Cl4  1  0.49935801  0.47923912  0.67408669  1.0
  Cl  Cl5  1  0.53585915  0.30087406  0.59184068  1.0
  Cl  Cl6  1  0.25710208  0.29166438  0.54596554  1.0
  Cl  Cl7  1  0.07770899  0.92452525  0.71844087  1.0
