# generated using pymatgen
data_NaCl
_symmetry_space_group_name_H-M   'P 1'
_cell_length_a   4.52242296
_cell_length_b   4.52242296
_cell_length_c   8.96690826
_cell_angle_alpha   90.00000000
_cell_angle_beta   90.00000000
_cell_angle_gamma   90.00000000
_symmetry_Int_Tables_number   1
_chemical_formula_structural   NaCl
_chemical_formula_sum   'Na4 Cl4'
_cell_volume   183.39398236
_cell_formula_units_Z   4
loop_
 _symmetry_equiv_pos_site_id
 _symmetry_equiv_pos_as_xyz
  1  'x, y, z'
loop_
 _atom_site_type_symbol
 _atom_site_label
 _atom_site_symmetry_multiplicity
 _atom_site_fract_x
 _atom_site_fract_y
 _atom_site_fract_z
 _atom_site_occupancy
  Na  Na0  1  0.60909255  0.47620744  0.80646180  1.0
  Na  Na1  1  0.37710202  0.72292994  0.53612316  1.0
  Na  Na2  1  0.48682505  0.85018276  0.72919391  1.0
  Na  Na3  1  0.09639739  0.27359996  0.18107861  1.0
  Cl  Cl4  1  0.00000000  0.50000000  0.86216886  1.0
  Cl  Cl5  1  0.50000000  0.00000000  0.95771102  1.0
  Cl  Cl6  1  0.00000000  0.50000000  0.26112801  1.0
  Cl  Cl7  1  0.50000000  0.00000000  0.60367914  1.0
