# generated using pymatgen
data_NaCl
_symmetry_space_group_name_H-M   'P 1'
_cell_length_a   6.21549111
_cell_length_b   6.21549111
_cell_length_c   6.38414833
_cell_angle_alpha   90.00000000
_cell_angle_beta   90.00000000
_cell_angle_gamma   90.00000000
_symmetry_Int_Tables_number   1
_chemical_formula_structural   NaCl
_chemical_formula_sum   'Na4 Cl4'
_cell_volume   246.63452338
_cell_formula_units_Z   4
loop_
 _symmetry_equiv_pos_site_id
 _symmetry_equiv_pos_as_xyz
  1  'x, y, z'
loop_
 _atom_site_type_symbol
 _atom_site_label
 _atom_site_symmetry_multiplicity
 _atom_site_fract_x
 _atom_site_fract_y
 _atom_site_fract_z
 _atom_site_occupancy
  Na  Na0  1  0.64613708  0.14613708  0.70187328  1.0
  Na  Na1  1  0.31952458  0.81952458  0.48691917  1.0
  Na  Na2  1  0.66183697  0.83816303  0.07313710  1.0
  Na  Na3  1  0.12234671  0.37765329  0.61846734  1.0
  Cl  Cl4  1  0.26657985  0.76657985  0.93182919  1.0
  Cl  Cl5  1  0.61521623  0.11521623  0.48927728  1.0
  Cl  Cl6  1  0.77238035  0.72761965  0.28842452  1.0
  Cl  Cl7  1  0.94437129  0.55562871  0.00096505  1.0
