# generated using pymatgen
data_NaCl
_symmetry_space_group_name_H-M   'P 1'
_cell_length_a   6.28781586
_cell_length_b   6.28781586
_cell_length_c   6.90551523
_cell_angle_alpha   90.00000000
_cell_angle_beta   90.00000000
_cell_angle_gamma   90.00000000
_symmetry_Int_Tables_number   1
_chemical_formula_structural   NaCl
_chemical_formula_sum   'Na4 Cl4'
_cell_volume   273.02078879
_cell_formula_units_Z   4
loop_
 _symmetry_equiv_pos_site_id
 _symmetry_equiv_pos_as_xyz
  1  'x, y, z'
loop_
 _atom_site_type_symbol
 _atom_site_label
 _atom_site_symmetry_multiplicity
 _atom_site_fract_x
 _atom_site_fract_y
 _atom_site_fract_z
 _atom_site_occupancy
  Na  Na0  1  0.55460481  0.45578112  0.71346508  1.0
  Na  Na1  1  0.39891017  0.56992479  0.51282276  1.0
  Na  Na2  1  0.50365457  0.86114037  0.08230638  1.0
  Na  Na3  1  0.12863962  0.38839112  0.52282259  1.0
  Cl  Cl4  1  0.00000000  0.00000000  0.98099070  1.0
  Cl  Cl5  1  0.00000000  0.50000000  0.47907272  1.0
  Cl  Cl6  1  0.50000000  0.00000000  0.27246846  1.0
  Cl  Cl7  1  0.50000000  0.50000000  0.08396006  1.0
