# generated using pymatgen
data_NaCl
_symmetry_space_group_name_H-M   'P 1'
_cell_length_a   7.30948200
_cell_length_b   7.30948200
_cell_length_c   7.26622224
_cell_angle_alpha   90.00000000
_cell_angle_beta   90.00000000
_cell_angle_gamma   90.00000000
_symmetry_Int_Tables_number   1
_chemical_formula_structural   NaCl
_chemical_formula_sum   'Na4 Cl4'
_cell_volume   388.22355192
_cell_formula_units_Z   4
loop_
 _symmetry_equiv_pos_site_id
 _symmetry_equiv_pos_as_xyz
  1  'x, y, z'
loop_
 _atom_site_type_symbol
 _atom_site_label
 _atom_site_symmetry_multiplicity
 _atom_site_fract_x
 _atom_site_fract_y
 _atom_site_fract_z
 _atom_site_occupancy
  Na  Na0  1  0.65256167  0.15256167  0.50000000  1.0
  Na  Na1  1  0.34720100  0.84720100  0.50000000  1.0
  Na  Na2  1  0.60927702  0.89072298  0.50000000  1.0
  Na  Na3  1  0.15164526  0.34835474  0.50000000  1.0
  Cl  Cl4  1  0.00000000  0.00000000  0.50000000  1.0
  Cl  Cl5  1  0.50000000  0.50000000  0.50000000  1.0
  Cl  Cl6  1  0.00000000  0.50000000  0.00000000  1.0
  Cl  Cl7  1  0.50000000  0.00000000  0.00000000  1.0
