# generated using pymatgen
data_NaCl
_symmetry_space_group_name_H-M   'P 1'
_cell_length_a   4.91754515
_cell_length_b   13.05472830
_cell_length_c   11.12193968
_cell_angle_alpha   90.00000000
_cell_angle_beta   35.10455945
_cell_angle_gamma   90.00000000
_symmetry_Int_Tables_number   1
_chemical_formula_structural   NaCl
_chemical_formula_sum   'Na4 Cl4'
_cell_volume   410.59883258
_cell_formula_units_Z   4
loop_
 _symmetry_equiv_pos_site_id
 _symmetry_equiv_pos_as_xyz
  1  'x, y, z'
loop_
 _atom_site_type_symbol
 _atom_site_label
 _atom_site_symmetry_multiplicity
 _atom_site_fract_x
 _atom_site_fract_y
 _atom_site_fract_z
 _atom_site_occupancy
  Na  Na0  1  0.66857758  0.47563353  0.66463389  1.0
  Na  Na1  1  0.50728254  0.56394268  0.55518860  1.0
  Na  Na2  1  0.63169066  0.36689887  0.50789326  1.0
  Na  Na3  1  0.56107987  0.72394078  0.05045020  1.0
  Cl  Cl4  1  0.43505337  0.00000000  0.68566665  1.0
  Cl  Cl5  1  0.18824624  0.50000000  0.99799916  1.0
  Cl  Cl6  1  0.46430314  0.50000000  0.32339795  1.0
  Cl  Cl7  1  0.28876606  0.50000000  0.59066193  1.0
