# generated using pymatgen
data_NaCl
_symmetry_space_group_name_H-M   'P 1'
_cell_length_a   5.54687341
_cell_length_b   5.54687341
_cell_length_c   6.66324152
_cell_angle_alpha   90.00000000
_cell_angle_beta   90.00000000
_cell_angle_gamma   90.00000000
_symmetry_Int_Tables_number   1
_chemical_formula_structural   NaCl
_chemical_formula_sum   'Na4 Cl4'
_cell_volume   205.01331327
_cell_formula_units_Z   4
loop_
 _symmetry_equiv_pos_site_id
 _symmetry_equiv_pos_as_xyz
  1  'x, y, z'
loop_
 _atom_site_type_symbol
 _atom_site_label
 _atom_site_symmetry_multiplicity
 _atom_site_fract_x
 _atom_site_fract_y
 _atom_site_fract_z
 _atom_site_occupancy
  Na  Na0  1  0.64485789  0.52092134  0.73580876  1.0
  Na  Na1  1  0.38752025  0.65320222  0.54804702  1.0
  Na  Na2  1  0.54833109  0.81073888  0.00025074  1.0
  Na  Na3  1  0.16864078  0.39306350  0.61337558  1.0
  Cl  Cl4  1  0.00000000  0.00000000  0.97861516  1.0
  Cl  Cl5  1  0.00000000  0.00000000  0.59406206  1.0
  Cl  Cl6  1  0.00000000  0.00000000  0.36334192  1.0
  Cl  Cl7  1  0.00000000  0.00000000  0.14251420  1.0
