# generated using pymatgen
data_NaCl
_symmetry_space_group_name_H-M   'P 1'
_cell_length_a   4.52067719
_cell_length_b   4.52067719
_cell_length_c   13.21161900
_cell_angle_alpha   90.00000000
_cell_angle_beta   90.00000000
_cell_angle_gamma   90.00000000
_symmetry_Int_Tables_number   1
_chemical_formula_structural   NaCl
_chemical_formula_sum   'Na4 Cl4'
_cell_volume   269.99954573
_cell_formula_units_Z   4
loop_
 _symmetry_equiv_pos_site_id
 _symmetry_equiv_pos_as_xyz
  1  'x, y, z'
loop_
 _atom_site_type_symbol
 _atom_site_label
 _atom_site_symmetry_multiplicity
 _atom_site_fract_x
 _atom_site_fract_y
 _atom_site_fract_z
 _atom_site_occupancy
  Na  Na0  1  0.78245363  0.63012992  0.20077818  1.0
  Na  Na1  1  0.13672099  0.48383737  0.13410213  1.0
  Na  Na2  1  0.27491298  0.79933558  0.27547476  1.0
  Na  Na3  1  0.23824168  0.38736630  0.25010689  1.0
  Cl  Cl4  1  0.46878062  0.52305741  0.57037052  1.0
  Cl  Cl5  1  0.79749759  0.32087898  0.91749818  1.0
  Cl  Cl6  1  0.49538342  0.48194383  0.34457595  1.0
  Cl  Cl7  1  0.32192018  0.68630538  0.65876176  1.0
