# generated using pymatgen
data_NaCl
_symmetry_space_group_name_H-M   'P 1'
_cell_length_a   5.18724390
_cell_length_b   5.18724390
_cell_length_c   13.13383145
_cell_angle_alpha   90.00000000
_cell_angle_beta   90.00000000
_cell_angle_gamma   90.00000000
_symmetry_Int_Tables_number   1
_chemical_formula_structural   NaCl
_chemical_formula_sum   'Na4 Cl4'
_cell_volume   353.39856026
_cell_formula_units_Z   4
loop_
 _symmetry_equiv_pos_site_id
 _symmetry_equiv_pos_as_xyz
  1  'x, y, z'
loop_
 _atom_site_type_symbol
 _atom_site_label
 _atom_site_symmetry_multiplicity
 _atom_site_fract_x
 _atom_site_fract_y
 _atom_site_fract_z
 _atom_site_occupancy
  Na  Na0  1  0.48605968  0.50500926  0.34212113  1.0
  Na  Na1  1  0.51807561  0.50337748  0.03355678  1.0
  Na  Na2  1  0.38044968  0.83716191  0.07582580  1.0
  Na  Na3  1  0.46902180  0.06570803  0.35764006  1.0
  Cl  Cl4  1  0.88188403  0.48031851  0.70564984  1.0
  Cl  Cl5  1  0.80862927  0.40206335  0.90210819  1.0
  Cl  Cl6  1  0.20192286  0.43333230  0.19383329  1.0
  Cl  Cl7  1  0.36471569  0.67654695  0.61232168  1.0
