# generated using pymatgen
data_NaCl
_symmetry_space_group_name_H-M   'P 1'
_cell_length_a   5.76415223
_cell_length_b   5.76415223
_cell_length_c   10.27115647
_cell_angle_alpha   90.00000000
_cell_angle_beta   90.00000000
_cell_angle_gamma   90.00000000
_symmetry_Int_Tables_number   1
_chemical_formula_structural   NaCl
_chemical_formula_sum   'Na4 Cl4'
_cell_volume   341.26380529
_cell_formula_units_Z   4
loop_
 _symmetry_equiv_pos_site_id
 _symmetry_equiv_pos_as_xyz
  1  'x, y, z'
loop_
 _atom_site_type_symbol
 _atom_site_label
 _atom_site_symmetry_multiplicity
 _atom_site_fract_x
 _atom_site_fract_y
 _atom_site_fract_z
 _atom_site_occupancy
  Na  Na0  1  0.66805240  0.16805240  0.26524528  1.0
  Na  Na1  1  0.42949171  0.92949171  0.78312865  1.0
  Na  Na2  1  0.15232387  0.34767613  0.34154076  1.0
  Na  Na3  1  0.66650976  0.83349024  0.07537431  1.0
  Cl  Cl4  1  0.67224517  0.17224517  0.64108971  1.0
  Cl  Cl5  1  0.72601183  0.22601183  0.82369429  1.0
  Cl  Cl6  1  0.05509253  0.44490747  0.59884499  1.0
  Cl  Cl7  1  0.91000841  0.58999159  0.43039416  1.0
