# generated using pymatgen
data_NaCl
_symmetry_space_group_name_H-M   'P 1'
_cell_length_a   2.39012514
_cell_length_b   8.23543368
_cell_length_c   14.92043289
_cell_angle_alpha   90.00000000
_cell_angle_beta   90.00000000
_cell_angle_gamma   90.00000000
_symmetry_Int_Tables_number   1
_chemical_formula_structural   NaCl
_chemical_formula_sum   'Na4 Cl4'
_cell_volume   293.68957968
_cell_formula_units_Z   4
loop_
 _symmetry_equiv_pos_site_id
 _symmetry_equiv_pos_as_xyz
  1  'x, y, z'
loop_
 _atom_site_type_symbol
 _atom_site_label
 _atom_site_symmetry_multiplicity
 _atom_site_fract_x
 _atom_site_fract_y
 _atom_site_fract_z
 _atom_site_occupancy
  Na  Na0  1  0.50000000  0.75672831  0.30960804  1.0
  Na  Na1  1  0.50000000  0.00080331  0.11611423  1.0
  Na  Na2  1  0.50000000  0.05783695  0.43691730  1.0
  Na  Na3  1  0.50000000  0.07412183  0.84484938  1.0
  Cl  Cl4  1  0.38544856  0.31970067  0.54178578  1.0
  Cl  Cl5  1  0.05954800  0.55515402  0.46008598  1.0
  Cl  Cl6  1  0.71616308  0.51727620  0.00850828  1.0
  Cl  Cl7  1  0.36469275  0.46716709  0.42403449  1.0
