# generated using pymatgen
data_NaCl
_symmetry_space_group_name_H-M   'P 1'
_cell_length_a   3.08961460
_cell_length_b   3.08961460
_cell_length_c   26.60677755
_cell_angle_alpha   90.00000000
_cell_angle_beta   90.00000000
_cell_angle_gamma   90.00000000
_symmetry_Int_Tables_number   1
_chemical_formula_structural   NaCl
_chemical_formula_sum   'Na4 Cl4'
_cell_volume   253.98080540
_cell_formula_units_Z   4
loop_
 _symmetry_equiv_pos_site_id
 _symmetry_equiv_pos_as_xyz
  1  'x, y, z'
loop_
 _atom_site_type_symbol
 _atom_site_label
 _atom_site_symmetry_multiplicity
 _atom_site_fract_x
 _atom_site_fract_y
 _atom_site_fract_z
 _atom_site_occupancy
  Na  Na0  1  0.73614607  0.73614607  0.62500000  1.0
  Na  Na1  1  0.76637688  0.76637688  0.12500000  1.0
  Na  Na2  1  0.14791294  0.85208706  0.37500000  1.0
  Na  Na3  1  0.48905247  0.51094753  0.87500000  1.0
  Cl  Cl4  1  0.50000000  0.40091282  0.00000000  1.0
  Cl  Cl5  1  0.50000000  0.28694904  0.50000000  1.0
  Cl  Cl6  1  0.21822649  0.50000000  0.75000000  1.0
  Cl  Cl7  1  0.34766192  0.50000000  0.25000000  1.0
