# generated using pymatgen
data_NaCl
_symmetry_space_group_name_H-M   'P 1'
_cell_length_a   5.31343861
_cell_length_b   5.31343861
_cell_length_c   12.74467927
_cell_angle_alpha   90.00000000
_cell_angle_beta   90.00000000
_cell_angle_gamma   90.00000000
_symmetry_Int_Tables_number   1
_chemical_formula_structural   NaCl
_chemical_formula_sum   'Na4 Cl4'
_cell_volume   359.81581254
_cell_formula_units_Z   4
loop_
 _symmetry_equiv_pos_site_id
 _symmetry_equiv_pos_as_xyz
  1  'x, y, z'
loop_
 _atom_site_type_symbol
 _atom_site_label
 _atom_site_symmetry_multiplicity
 _atom_site_fract_x
 _atom_site_fract_y
 _atom_site_fract_z
 _atom_site_occupancy
  Na  Na0  1  0.51438838  0.50000000  0.84859991  1.0
  Na  Na1  1  0.87175114  0.50000000  0.68117996  1.0
  Na  Na2  1  0.50000000  0.67891088  0.54824877  1.0
  Na  Na3  1  0.50000000  0.66733393  0.05169978  1.0
  Cl  Cl4  1  0.30510076  0.30510076  0.72183321  1.0
  Cl  Cl5  1  0.94641402  0.94641402  0.42529039  1.0
  Cl  Cl6  1  0.92714372  0.07285628  0.33586466  1.0
  Cl  Cl7  1  0.34213070  0.65786930  0.27366056  1.0
