# generated using pymatgen
data_NaCl
_symmetry_space_group_name_H-M   'P 1'
_cell_length_a   5.21927578
_cell_length_b   5.21927578
_cell_length_c   11.44611789
_cell_angle_alpha   90.00000000
_cell_angle_beta   90.00000000
_cell_angle_gamma   90.00000000
_symmetry_Int_Tables_number   1
_chemical_formula_structural   NaCl
_chemical_formula_sum   'Na4 Cl4'
_cell_volume   311.80186226
_cell_formula_units_Z   4
loop_
 _symmetry_equiv_pos_site_id
 _symmetry_equiv_pos_as_xyz
  1  'x, y, z'
loop_
 _atom_site_type_symbol
 _atom_site_label
 _atom_site_symmetry_multiplicity
 _atom_site_fract_x
 _atom_site_fract_y
 _atom_site_fract_z
 _atom_site_occupancy
  Na  Na0  1  0.77556829  0.56880938  0.79813604  1.0
  Na  Na1  1  0.87556735  0.58913633  0.05880367  1.0
  Na  Na2  1  0.40277514  0.66313881  0.54464913  1.0
  Na  Na3  1  0.31854230  0.73957769  0.89752929  1.0
  Cl  Cl4  1  0.39355712  0.59318104  0.66042124  1.0
  Cl  Cl5  1  0.86331896  0.00009396  0.82075279  1.0
  Cl  Cl6  1  0.15773103  0.88652465  0.55617184  1.0
  Cl  Cl7  1  0.37684970  0.58890297  0.05487338  1.0
