# generated using pymatgen
data_NaCl
_symmetry_space_group_name_H-M   'P 1'
_cell_length_a   6.76012718
_cell_length_b   6.76012718
_cell_length_c   6.76012718
_cell_angle_alpha   90.00000000
_cell_angle_beta   90.00000000
_cell_angle_gamma   90.00000000
_symmetry_Int_Tables_number   1
_chemical_formula_structural   NaCl
_chemical_formula_sum   'Na4 Cl4'
_cell_volume   308.93321179
_cell_formula_units_Z   4
loop_
 _symmetry_equiv_pos_site_id
 _symmetry_equiv_pos_as_xyz
  1  'x, y, z'
loop_
 _atom_site_type_symbol
 _atom_site_label
 _atom_site_symmetry_multiplicity
 _atom_site_fract_x
 _atom_site_fract_y
 _atom_site_fract_z
 _atom_site_occupancy
  Na  Na0  1  0.11232812  0.11232812  0.11232812  1.0
  Na  Na1  1  0.37601802  0.37601802  0.62398198  1.0
  Na  Na2  1  0.28653464  0.71346536  0.28653464  1.0
  Na  Na3  1  0.40960986  0.59039014  0.59039014  1.0
  Cl  Cl4  1  0.42734201  0.42734201  0.42734201  1.0
  Cl  Cl5  1  0.50957738  0.50957738  0.49042262  1.0
  Cl  Cl6  1  0.17824620  0.82175380  0.17824620  1.0
  Cl  Cl7  1  0.25175266  0.74824734  0.74824734  1.0
