# generated using pymatgen
data_NaCl
_symmetry_space_group_name_H-M   'P 1'
_cell_length_a   4.25641268
_cell_length_b   4.25641268
_cell_length_c   12.04980286
_cell_angle_alpha   90.00000000
_cell_angle_beta   90.00000000
_cell_angle_gamma   90.00000000
_symmetry_Int_Tables_number   1
_chemical_formula_structural   NaCl
_chemical_formula_sum   'Na4 Cl4'
_cell_volume   218.30686768
_cell_formula_units_Z   4
loop_
 _symmetry_equiv_pos_site_id
 _symmetry_equiv_pos_as_xyz
  1  'x, y, z'
loop_
 _atom_site_type_symbol
 _atom_site_label
 _atom_site_symmetry_multiplicity
 _atom_site_fract_x
 _atom_site_fract_y
 _atom_site_fract_z
 _atom_site_occupancy
  Na  Na0  1  0.68576579  0.18576579  0.50000000  1.0
  Na  Na1  1  0.35868608  0.85868608  0.50000000  1.0
  Na  Na2  1  0.23293142  0.26706858  0.50000000  1.0
  Na  Na3  1  0.95394554  0.54605446  0.50000000  1.0
  Cl  Cl4  1  0.61290782  0.11290782  0.00000000  1.0
  Cl  Cl5  1  0.94502702  0.44502702  0.00000000  1.0
  Cl  Cl6  1  0.86303763  0.63696237  0.00000000  1.0
  Cl  Cl7  1  0.18644344  0.31355656  0.00000000  1.0
