# generated using pymatgen
data_NaCl
_symmetry_space_group_name_H-M   'P 1'
_cell_length_a   3.91624780
_cell_length_b   3.91624780
_cell_length_c   5.39501551
_cell_angle_alpha   90.00000000
_cell_angle_beta   90.00000000
_cell_angle_gamma   90.00000000
_symmetry_Int_Tables_number   1
_chemical_formula_structural   NaCl
_chemical_formula_sum   'Na4 Cl4'
_cell_volume   82.74333578
_cell_formula_units_Z   4
loop_
 _symmetry_equiv_pos_site_id
 _symmetry_equiv_pos_as_xyz
  1  'x, y, z'
loop_
 _atom_site_type_symbol
 _atom_site_label
 _atom_site_symmetry_multiplicity
 _atom_site_fract_x
 _atom_site_fract_y
 _atom_site_fract_z
 _atom_site_occupancy
  Na  Na0  1  0.81616011  0.53929187  0.35447660  1.0
  Na  Na1  1  0.29359099  0.55723940  0.79870414  1.0
  Na  Na2  1  0.75819049  0.64563481  0.89941516  1.0
  Na  Na3  1  0.47790140  0.18024970  0.53095495  1.0
  Cl  Cl4  1  0.30153426  0.40146384  0.99851888  1.0
  Cl  Cl5  1  0.67129488  0.18084052  0.09094105  1.0
  Cl  Cl6  1  0.91236448  0.92027193  0.33714813  1.0
  Cl  Cl7  1  0.57237678  0.30557723  0.22034276  1.0
