# generated using pymatgen
data_NaCl
_symmetry_space_group_name_H-M   'P 1'
_cell_length_a   5.20871412
_cell_length_b   5.20871412
_cell_length_c   8.83101138
_cell_angle_alpha   90.00000000
_cell_angle_beta   90.00000000
_cell_angle_gamma   90.00000000
_symmetry_Int_Tables_number   1
_chemical_formula_structural   NaCl
_chemical_formula_sum   'Na4 Cl4'
_cell_volume   239.59154503
_cell_formula_units_Z   4
loop_
 _symmetry_equiv_pos_site_id
 _symmetry_equiv_pos_as_xyz
  1  'x, y, z'
loop_
 _atom_site_type_symbol
 _atom_site_label
 _atom_site_symmetry_multiplicity
 _atom_site_fract_x
 _atom_site_fract_y
 _atom_site_fract_z
 _atom_site_occupancy
  Na  Na0  1  0.64421142  0.64421142  0.37500000  1.0
  Na  Na1  1  0.35508505  0.35508505  0.87500000  1.0
  Na  Na2  1  0.03357854  0.96642146  0.62500000  1.0
  Na  Na3  1  0.69394989  0.30605011  0.12500000  1.0
  Cl  Cl4  1  0.19118445  0.19118445  0.37500000  1.0
  Cl  Cl5  1  0.58202155  0.58202155  0.87500000  1.0
  Cl  Cl6  1  0.29012235  0.70987765  0.62500000  1.0
  Cl  Cl7  1  0.34779010  0.65220990  0.12500000  1.0
