# generated using pymatgen
data_NaCl
_symmetry_space_group_name_H-M   'P 1'
_cell_length_a   6.42704508
_cell_length_b   6.42704508
_cell_length_c   2.61831970
_cell_angle_alpha   90.00000000
_cell_angle_beta   90.00000000
_cell_angle_gamma   90.00000000
_symmetry_Int_Tables_number   1
_chemical_formula_structural   NaCl
_chemical_formula_sum   'Na4 Cl4'
_cell_volume   108.15469217
_cell_formula_units_Z   4
loop_
 _symmetry_equiv_pos_site_id
 _symmetry_equiv_pos_as_xyz
  1  'x, y, z'
loop_
 _atom_site_type_symbol
 _atom_site_label
 _atom_site_symmetry_multiplicity
 _atom_site_fract_x
 _atom_site_fract_y
 _atom_site_fract_z
 _atom_site_occupancy
  Na  Na0  1  0.59855202  0.50000000  0.61519127  1.0
  Na  Na1  1  0.28213793  0.50000000  0.51265421  1.0
  Na  Na2  1  0.50000000  0.88283509  0.50155354  1.0
  Na  Na3  1  0.50000000  0.36693633  0.21953151  1.0
  Cl  Cl4  1  0.21267191  0.00000000  0.97746760  1.0
  Cl  Cl5  1  0.64541653  0.00000000  0.59449350  1.0
  Cl  Cl6  1  0.00000000  0.75316757  0.82311967  1.0
  Cl  Cl7  1  0.00000000  0.57997282  0.58165255  1.0
