# generated using pymatgen
data_NaCl
_symmetry_space_group_name_H-M   'P 1'
_cell_length_a   9.02895004
_cell_length_b   6.40276806
_cell_length_c   7.03857865
_cell_angle_alpha   90.00000000
_cell_angle_beta   40.14617095
_cell_angle_gamma   90.00000000
_symmetry_Int_Tables_number   1
_chemical_formula_structural   NaCl
_chemical_formula_sum   'Na4 Cl4'
_cell_volume   262.34602119
_cell_formula_units_Z   4
loop_
 _symmetry_equiv_pos_site_id
 _symmetry_equiv_pos_as_xyz
  1  'x, y, z'
loop_
 _atom_site_type_symbol
 _atom_site_label
 _atom_site_symmetry_multiplicity
 _atom_site_fract_x
 _atom_site_fract_y
 _atom_site_fract_z
 _atom_site_occupancy
  Na  Na0  1  0.59884827  0.86758159  0.12758461  1.0
  Na  Na1  1  0.24103202  0.33101864  0.76018542  1.0
  Na  Na2  1  0.54531041  0.50167877  0.54742207  1.0
  Na  Na3  1  0.46742493  0.96437886  0.60158821  1.0
  Cl  Cl4  1  0.31550907  0.47146520  0.41945607  1.0
  Cl  Cl5  1  0.50678557  0.69470976  0.92192175  1.0
  Cl  Cl6  1  0.13939970  0.97293524  0.62707056  1.0
  Cl  Cl7  1  0.43498469  0.07711745  0.95945047  1.0
