# generated using pymatgen
data_NaCl
_symmetry_space_group_name_H-M   'P 1'
_cell_length_a   4.31923680
_cell_length_b   4.31923680
_cell_length_c   14.81528243
_cell_angle_alpha   90.00000000
_cell_angle_beta   90.00000000
_cell_angle_gamma   90.00000000
_symmetry_Int_Tables_number   1
_chemical_formula_structural   NaCl
_chemical_formula_sum   'Na4 Cl4'
_cell_volume   276.39104277
_cell_formula_units_Z   4
loop_
 _symmetry_equiv_pos_site_id
 _symmetry_equiv_pos_as_xyz
  1  'x, y, z'
loop_
 _atom_site_type_symbol
 _atom_site_label
 _atom_site_symmetry_multiplicity
 _atom_site_fract_x
 _atom_site_fract_y
 _atom_site_fract_z
 _atom_site_occupancy
  Na  Na0  1  0.63325259  0.53614979  0.27959045  1.0
  Na  Na1  1  0.40608197  0.42686436  0.73650030  1.0
  Na  Na2  1  0.60524100  0.28968455  0.40363471  1.0
  Na  Na3  1  0.89510013  0.57531047  0.94377858  1.0
  Cl  Cl4  1  0.00000000  0.50000000  0.60567712  1.0
  Cl  Cl5  1  0.50000000  0.00000000  0.54193309  1.0
  Cl  Cl6  1  0.50000000  0.50000000  0.00000000  1.0
  Cl  Cl7  1  0.50000000  0.50000000  0.50000000  1.0
