# generated using pymatgen
data_NaCl
_symmetry_space_group_name_H-M   'P 1'
_cell_length_a   5.32100841
_cell_length_b   5.32100841
_cell_length_c   7.85126508
_cell_angle_alpha   90.00000000
_cell_angle_beta   90.00000000
_cell_angle_gamma   90.00000000
_symmetry_Int_Tables_number   1
_chemical_formula_structural   NaCl
_chemical_formula_sum   'Na4 Cl4'
_cell_volume   222.29389279
_cell_formula_units_Z   4
loop_
 _symmetry_equiv_pos_site_id
 _symmetry_equiv_pos_as_xyz
  1  'x, y, z'
loop_
 _atom_site_type_symbol
 _atom_site_label
 _atom_site_symmetry_multiplicity
 _atom_site_fract_x
 _atom_site_fract_y
 _atom_site_fract_z
 _atom_site_occupancy
  Na  Na0  1  0.68728722  0.68728722  0.50000000  1.0
  Na  Na1  1  0.43009388  0.43009388  0.50000000  1.0
  Na  Na2  1  0.57653969  0.42346031  0.00000000  1.0
  Na  Na3  1  0.25347556  0.74652444  0.00000000  1.0
  Cl  Cl4  1  0.32991560  0.32991560  0.00000000  1.0
  Cl  Cl5  1  0.71422347  0.71422347  0.00000000  1.0
  Cl  Cl6  1  0.73080402  0.26919598  0.50000000  1.0
  Cl  Cl7  1  0.84290362  0.15709638  0.50000000  1.0
