# generated using pymatgen
data_NaCl
_symmetry_space_group_name_H-M   'P 1'
_cell_length_a   7.73112202
_cell_length_b   7.73112202
_cell_length_c   6.22308720
_cell_angle_alpha   90.00000000
_cell_angle_beta   90.00000000
_cell_angle_gamma   90.00000000
_symmetry_Int_Tables_number   1
_chemical_formula_structural   NaCl
_chemical_formula_sum   'Na4 Cl4'
_cell_volume   371.95546333
_cell_formula_units_Z   4
loop_
 _symmetry_equiv_pos_site_id
 _symmetry_equiv_pos_as_xyz
  1  'x, y, z'
loop_
 _atom_site_type_symbol
 _atom_site_label
 _atom_site_symmetry_multiplicity
 _atom_site_fract_x
 _atom_site_fract_y
 _atom_site_fract_z
 _atom_site_occupancy
  Na  Na0  1  0.63182377  0.45786140  0.72729281  1.0
  Na  Na1  1  0.34805032  0.62589514  0.98775013  1.0
  Na  Na2  1  0.59263532  0.93898876  0.34863175  1.0
  Na  Na3  1  0.11389651  0.23933020  0.46278723  1.0
  Cl  Cl4  1  0.25116545  0.34814457  0.96605369  1.0
  Cl  Cl5  1  0.55716782  0.53716938  0.15093971  1.0
  Cl  Cl6  1  0.14372375  0.73866805  0.56352376  1.0
  Cl  Cl7  1  0.16880282  0.54957802  0.89518719  1.0
