# generated using pymatgen
data_NaCl
_symmetry_space_group_name_H-M   'P 1'
_cell_length_a   4.48368579
_cell_length_b   4.48368579
_cell_length_c   12.28005548
_cell_angle_alpha   90.00000000
_cell_angle_beta   90.00000000
_cell_angle_gamma   90.00000000
_symmetry_Int_Tables_number   1
_chemical_formula_structural   NaCl
_chemical_formula_sum   'Na4 Cl4'
_cell_volume   246.87133721
_cell_formula_units_Z   4
loop_
 _symmetry_equiv_pos_site_id
 _symmetry_equiv_pos_as_xyz
  1  'x, y, z'
loop_
 _atom_site_type_symbol
 _atom_site_label
 _atom_site_symmetry_multiplicity
 _atom_site_fract_x
 _atom_site_fract_y
 _atom_site_fract_z
 _atom_site_occupancy
  Na  Na0  1  0.31507675  0.31507675  0.79604143  1.0
  Na  Na1  1  0.44259208  0.44259208  0.42994554  1.0
  Na  Na2  1  0.31714506  0.68285494  0.02665454  1.0
  Na  Na3  1  0.50079264  0.49920736  0.65448050  1.0
  Cl  Cl4  1  0.36107814  0.36107814  0.00845799  1.0
  Cl  Cl5  1  0.66539478  0.66539478  0.41372341  1.0
  Cl  Cl6  1  0.15658247  0.84341753  0.12065100  1.0
  Cl  Cl7  1  0.33288823  0.66711177  0.73620121  1.0
